@<TRIPOS>MOLECULE
IMPHY007111
 45 47 0 0 0
SMALL
GASTEIGER

@<TRIPOS>ATOM
      1 O          11.2774   -1.4597    0.0000 O.3     1  UNL1       -0.4853
      2 O          13.8610   -0.6550    0.0000 O.3     1  UNL1       -0.3855
      3 O           9.4651    1.3450    0.0000 O.3     1  UNL1       -0.5057
      4 O           7.7331    1.3450    0.0000 O.2     1  UNL1       -0.2872
      5 O           2.5369   -1.6550    0.0000 O.3     1  UNL1       -0.5068
      6 C          11.8610   -0.6550    0.0000 C.3     1  UNL1        0.1323
      7 C          12.8610   -0.6550    0.0000 C.3     1  UNL1        0.0974
      8 C          11.2774    0.1497    0.0000 C.3     1  UNL1        0.0192
      9 C          10.3312   -0.1550    0.0000 C.ar    1  UNL1        0.0399
     10 C          10.3312   -1.1550    0.0000 C.ar    1  UNL1        0.1278
     11 C          12.8610   -1.6550    0.0000 C.3     1  UNL1       -0.0328
     12 C          12.8610    0.3450    0.0000 C.3     1  UNL1       -0.0328
     13 C           9.4651    0.3450    0.0000 C.ar    1  UNL1        0.1344
     14 C           9.4651   -1.6550    0.0000 C.ar    1  UNL1       -0.0187
     15 C           8.5991   -0.1550    0.0000 C.ar    1  UNL1        0.0635
     16 C           8.5991   -1.1550    0.0000 C.ar    1  UNL1       -0.0439
     17 C           7.7331    0.3450    0.0000 C.2     1  UNL1        0.1896
     18 C           6.8671   -0.1550    0.0000 C.2     1  UNL1       -0.0137
     19 C           6.0010    0.3450    0.0000 C.2     1  UNL1       -0.0510
     20 C           5.1350   -0.1550    0.0000 C.ar    1  UNL1       -0.0247
     21 C           4.2690    0.3450    0.0000 C.ar    1  UNL1       -0.0511
     22 C           5.1350   -1.1550    0.0000 C.ar    1  UNL1       -0.0511
     23 C           3.4030   -0.1550    0.0000 C.ar    1  UNL1       -0.0196
     24 C           4.2690   -1.6550    0.0000 C.ar    1  UNL1       -0.0196
     25 C           3.4030   -1.1550    0.0000 C.ar    1  UNL1        0.1169
     26 H          12.2472   -1.4122    0.0000 H       1  UNL1        0.0765
     27 H          11.8148    0.4590    0.0000 H       1  UNL1        0.0352
     28 H          11.0264    0.7166    0.0000 H       1  UNL1        0.0352
     29 H          13.4810    0.3450    0.0000 H       1  UNL1        0.0258
     30 H          12.8610    0.9650    0.0000 H       1  UNL1        0.0258
     31 H          12.2410    0.3450    0.0000 H       1  UNL1        0.0258
     32 H          12.2410   -1.6550    0.0000 H       1  UNL1        0.0258
     33 H          12.8610   -2.2750    0.0000 H       1  UNL1        0.0258
     34 H          13.4810   -1.6550    0.0000 H       1  UNL1        0.0258
     35 H           9.4651   -2.2750    0.0000 H       1  UNL1        0.0654
     36 H          14.1710   -1.1919    0.0000 H       1  UNL1        0.2103
     37 H           8.0622   -1.4650    0.0000 H       1  UNL1        0.0627
     38 H          10.0021    1.6550    0.0000 H       1  UNL1        0.2922
     39 H           6.8671   -0.7750    0.0000 H       1  UNL1        0.0656
     40 H           6.0010    0.9650    0.0000 H       1  UNL1        0.0625
     41 H           4.2690    0.9650    0.0000 H       1  UNL1        0.0625
     42 H           5.6720   -1.4650    0.0000 H       1  UNL1        0.0625
     43 H           2.8660    0.1550    0.0000 H       1  UNL1        0.0654
     44 H           4.2690   -2.2750    0.0000 H       1  UNL1        0.0654
     45 H           2.0000   -1.3450    0.0000 H       1  UNL1        0.2921
@<TRIPOS>BOND
     1     1     6    1
     2     1    10    1
     3     2     7    1
     4     2    36    1
     5     3    13    1
     6     3    38    1
     7     4    17    2
     8     5    25    1
     9     5    45    1
    10     6     7    1
    11     6     8    1
    12     6    26    1
    13     7    11    1
    14     7    12    1
    15     8     9    1
    16     8    27    1
    17     8    28    1
    18     9    10   ar
    19     9    13   ar
    20    10    14   ar
    21    11    32    1
    22    11    33    1
    23    11    34    1
    24    12    29    1
    25    12    30    1
    26    12    31    1
    27    13    15   ar
    28    14    16   ar
    29    14    35    1
    30    15    16   ar
    31    15    17    1
    32    16    37    1
    33    17    18    1
    34    18    19    2
    35    18    39    1
    36    19    20    1
    37    19    40    1
    38    20    21   ar
    39    20    22   ar
    40    21    23   ar
    41    21    41    1
    42    22    24   ar
    43    22    42    1
    44    23    25   ar
    45    23    43    1
    46    24    25   ar
    47    24    44    1
