@<TRIPOS>MOLECULE
IMPHY005119
 54 58 0 0 0
SMALL
GASTEIGER

@<TRIPOS>ATOM
      1 O           5.2702    0.9646    0.0000 O.3     1  UNL1       -0.3358
      2 O           7.3064    2.6102    0.0000 O.3     1  UNL1       -0.3873
      3 O           5.1561   -0.6959    0.0000 O.3     1  UNL1       -0.4251
      4 O           8.0923   -0.9621    0.0000 O.3     1  UNL1       -0.3846
      5 O           7.4362   -1.3275    0.0000 O.2     1  UNL1       -0.2966
      6 O           3.7488    0.3137    0.0000 O.2     1  UNL1       -0.2449
      7 C           8.5781    1.1359    0.0000 C.3     1  UNL1        0.0414
      8 C           7.7690    1.7237    0.0000 C.3     1  UNL1        0.0834
      9 C           6.8110    1.3148    0.0000 C.3     1  UNL1        0.0390
     10 C           6.6942    0.2797    0.0000 C.3     1  UNL1        0.1039
     11 C           5.7390    0.1166    0.0000 C.3     1  UNL1        0.2553
     12 C           7.4528   -0.1933    0.0000 C.3     1  UNL1        0.1302
     13 C           9.3871    1.7237    0.0000 C.3     1  UNL1       -0.0325
     14 C           8.4852    0.0984    0.0000 C.3     1  UNL1        0.0177
     15 C           8.0781    2.6748    0.0000 C.3     1  UNL1       -0.0225
     16 C           5.9163    1.6867    0.0000 C.3     1  UNL1        0.0612
     17 C           7.5369   -0.3326    0.0000 C.2     1  UNL1        0.1469
     18 C           9.0781    2.6748    0.0000 C.3     1  UNL1       -0.0471
     19 C           6.5766    2.2869    0.0000 C.3     1  UNL1       -0.0537
     20 C           6.5820   -0.7140    0.0000 C.3     1  UNL1       -0.0459
     21 C          10.3381    1.4147    0.0000 C.3     1  UNL1       -0.0617
     22 C           4.1610   -0.5974    0.0000 C.2     1  UNL1        0.3416
     23 C           3.5781   -1.4099    0.0000 C.ar    1  UNL1        0.0591
     24 C           2.5829   -1.3113    0.0000 C.ar    1  UNL1       -0.0478
     25 C           3.9903   -2.3210    0.0000 C.ar    1  UNL1       -0.0478
     26 C           2.0000   -2.1238    0.0000 C.ar    1  UNL1       -0.0610
     27 C           3.4073   -3.1335    0.0000 C.ar    1  UNL1       -0.0610
     28 C           2.4122   -3.0349    0.0000 C.ar    1  UNL1       -0.0617
     29 H           7.1405   -0.7289    0.0000 H       1  UNL1        0.0666
     30 H           9.8255    2.1621    0.0000 H       1  UNL1        0.0305
     31 H           8.6413   -0.5016    0.0000 H       1  UNL1        0.0349
     32 H           9.1030    0.1496    0.0000 H       1  UNL1        0.0349
     33 H           8.1429    3.2914    0.0000 H       1  UNL1        0.0293
     34 H           7.4716    2.8037    0.0000 H       1  UNL1        0.0293
     35 H           6.2168    2.2290    0.0000 H       1  UNL1        0.0568
     36 H           5.4110    2.0459    0.0000 H       1  UNL1        0.0568
     37 H           9.6845    2.8037    0.0000 H       1  UNL1        0.0269
     38 H           9.0133    3.2914    0.0000 H       1  UNL1        0.0269
     39 H           7.1793    2.4322    0.0000 H       1  UNL1        0.0237
     40 H           6.4313    2.8896    0.0000 H       1  UNL1        0.0237
     41 H           5.9739    2.1415    0.0000 H       1  UNL1        0.0237
     42 H           5.9659   -0.6444    0.0000 H       1  UNL1        0.0241
     43 H           6.5124   -1.3301    0.0000 H       1  UNL1        0.0241
     44 H           7.1981   -0.7835    0.0000 H       1  UNL1        0.0241
     45 H           7.6390    3.1335    0.0000 H       1  UNL1        0.2102
     46 H          10.1466    0.8250    0.0000 H       1  UNL1        0.0233
     47 H          10.9278    1.2231    0.0000 H       1  UNL1        0.0233
     48 H          10.5297    2.0043    0.0000 H       1  UNL1        0.0233
     49 H           8.7033   -0.8571    0.0000 H       1  UNL1        0.2101
     50 H           2.3274   -0.7464    0.0000 H       1  UNL1        0.0626
     51 H           4.6072   -2.3821    0.0000 H       1  UNL1        0.0626
     52 H           1.3830   -2.0627    0.0000 H       1  UNL1        0.0618
     53 H           3.6629   -3.6984    0.0000 H       1  UNL1        0.0618
     54 H           2.0508   -3.5387    0.0000 H       1  UNL1        0.0618
@<TRIPOS>BOND
     1     1    11    1
     2     1    16    1
     3     8     2    1
     4     2    45    1
     5    11     3    1
     6     3    22    1
     7    12     4    1
     8     4    49    1
     9     5    17    2
    10     6    22    2
    11     7     8    1
    12     7    12    1
    13     7    13    1
    14     7    14    1
    15     8     9    1
    16     8    15    1
    17     9    10    1
    18     9    16    1
    19     9    19    1
    20    10    11    1
    21    10    17    1
    22    10    20    1
    23    11    12    1
    24    12    29    1
    25    13    18    1
    26    13    21    1
    27    13    30    1
    28    14    17    1
    29    14    31    1
    30    14    32    1
    31    15    18    1
    32    15    33    1
    33    15    34    1
    34    16    35    1
    35    16    36    1
    36    18    37    1
    37    18    38    1
    38    19    39    1
    39    19    40    1
    40    19    41    1
    41    20    42    1
    42    20    43    1
    43    20    44    1
    44    21    46    1
    45    21    47    1
    46    21    48    1
    47    22    23    1
    48    23    24   ar
    49    23    25   ar
    50    24    26   ar
    51    24    50    1
    52    25    27   ar
    53    25    51    1
    54    26    28   ar
    55    26    52    1
    56    27    28   ar
    57    27    53    1
    58    28    54    1
