@<TRIPOS>MOLECULE
IMPHY009383
 19 20 0 0 0
SMALL
GASTEIGER

@<TRIPOS>ATOM
      1 O           5.5321   -0.3100    0.0000 O.2     1  UNL1       -0.4190
      2 O           4.6660   -1.8100    0.0000 O.2     1  UNL1       -0.2445
      3 O           7.2641    0.6900    0.0000 O.2     1  UNL1       -0.2924
      4 C           3.8000    0.6900    0.0000 C.ar    1  UNL1       -0.0075
      5 C           3.8000   -0.3100    0.0000 C.ar    1  UNL1        0.0666
      6 C           4.6660    1.1900    0.0000 C.ar    1  UNL1       -0.0081
      7 C           2.9061    1.2247    0.0000 C.ar    1  UNL1       -0.0537
      8 C           2.9061   -0.8447    0.0000 C.ar    1  UNL1       -0.0472
      9 C           4.6660   -0.8100    0.0000 C.ar    1  UNL1        0.3451
     10 C           5.5321    0.6900    0.0000 C.ar    1  UNL1        0.1715
     11 C           2.0000    0.7108    0.0000 C.ar    1  UNL1       -0.0612
     12 C           2.0000   -0.3308    0.0000 C.ar    1  UNL1       -0.0609
     13 C           6.3981    1.1900    0.0000 C.2     1  UNL1        0.1852
     14 H           4.6660    1.8100    0.0000 H       1  UNL1        0.0661
     15 H           2.9132    1.8446    0.0000 H       1  UNL1        0.0624
     16 H           2.9132   -1.4646    0.0000 H       1  UNL1        0.0626
     17 H           1.4643    1.0229    0.0000 H       1  UNL1        0.0618
     18 H           1.4643   -0.6429    0.0000 H       1  UNL1        0.0618
     19 H           6.3981    1.8100    0.0000 H       1  UNL1        0.1114
@<TRIPOS>BOND
     1     1     9   ar
     2     1    10   ar
     3     2     9    2
     4     3    13    2
     5     4     5   ar
     6     4     6   ar
     7     4     7   ar
     8     5     8   ar
     9     5     9   ar
    10     6    10   ar
    11     6    14    1
    12     7    11   ar
    13     7    15    1
    14     8    12   ar
    15     8    16    1
    16    10    13    1
    17    11    12   ar
    18    11    17    1
    19    12    18    1
    20    13    19    1
