@<TRIPOS>MOLECULE
IMPHY003611
 42 46 0 0 0
SMALL
GASTEIGER

@<TRIPOS>ATOM
      1 O           3.7670    1.8625    0.0000 O.3     1  UNL1       -0.3757
      2 O           6.2596   -2.4348    0.0000 O.3     1  UNL1       -0.3859
      3 O           2.6079    0.4034    0.0000 O.3     1  UNL1       -0.4526
      4 O           2.6079   -1.2731    0.0000 O.3     1  UNL1       -0.4526
      5 N           7.1256    0.0652    0.0000 N.3     1  UNL1       -0.2825
      6 C           6.2596    0.5652    0.0000 C.3     1  UNL1        0.0756
      7 C           5.2440    0.7674    0.0000 C.3     1  UNL1        0.0039
      8 C           6.4688    1.5370    0.0000 C.2     1  UNL1       -0.0256
      9 C           5.3935    0.0652    0.0000 C.ar    1  UNL1       -0.0134
     10 C           7.1256   -0.9348    0.0000 C.3     1  UNL1        0.0305
     11 C           7.8626    0.7322    0.0000 C.3     1  UNL1        0.0189
     12 C           6.2596   -1.4348    0.0000 C.3     1  UNL1        0.0933
     13 C           5.3935   -0.9348    0.0000 C.ar    1  UNL1       -0.0090
     14 C           4.7664    1.8288    0.0000 C.3     1  UNL1        0.0790
     15 C           7.4575    1.6400    0.0000 C.2     1  UNL1       -0.0648
     16 C           6.1666    2.5274    0.0000 C.2     1  UNL1       -0.0583
     17 C           4.4996    0.5998    0.0000 C.ar    1  UNL1       -0.0105
     18 C           5.3086    2.6748    0.0000 C.2     1  UNL1       -0.0553
     19 C           4.4996   -1.4695    0.0000 C.ar    1  UNL1       -0.0101
     20 C           3.5935    0.0860    0.0000 C.ar    1  UNL1        0.1666
     21 C           3.5935   -0.9557    0.0000 C.ar    1  UNL1        0.1666
     22 C           2.0000   -0.4348    0.0000 C.3     1  UNL1        0.2332
     23 C           3.2964    2.7448    0.0000 C.3     1  UNL1        0.0372
     24 H           4.6385    0.6343    0.0000 H       1  UNL1        0.0318
     25 H           5.2502    0.1475    0.0000 H       1  UNL1        0.0318
     26 H           7.3376   -1.5174    0.0000 H       1  UNL1        0.0456
     27 H           7.7362   -0.8272    0.0000 H       1  UNL1        0.0456
     28 H           8.2280    0.2314    0.0000 H       1  UNL1        0.0470
     29 H           8.3991    1.0430    0.0000 H       1  UNL1        0.0470
     30 H           6.7965   -1.7448    0.0000 H       1  UNL1        0.0656
     31 H           4.4781    2.3777    0.0000 H       1  UNL1        0.0641
     32 H           7.7675    2.1770    0.0000 H       1  UNL1        0.0588
     33 H           6.5765    2.9925    0.0000 H       1  UNL1        0.0619
     34 H           4.5068    1.2198    0.0000 H       1  UNL1        0.0659
     35 H           5.0585    3.2421    0.0000 H       1  UNL1        0.0598
     36 H           4.5068   -2.0895    0.0000 H       1  UNL1        0.0659
     37 H           6.7965   -2.7448    0.0000 H       1  UNL1        0.2103
     38 H           1.5391   -0.0201    0.0000 H       1  UNL1        0.1166
     39 H           1.5391   -0.8496    0.0000 H       1  UNL1        0.1166
     40 H           3.8434    3.0366    0.0000 H       1  UNL1        0.0524
     41 H           3.0046    3.2919    0.0000 H       1  UNL1        0.0524
     42 H           2.7493    2.4531    0.0000 H       1  UNL1        0.0524
@<TRIPOS>BOND
     1    14     1    1
     2     1    23    1
     3    12     2    1
     4     2    37    1
     5     3    20    1
     6     3    22    1
     7     4    21    1
     8     4    22    1
     9     5     6    1
    10     5    10    1
    11     5    11    1
    12     6     7    1
    13     6     8    1
    14     6     9    1
    15     7    14    1
    16     7    24    1
    17     7    25    1
    18     8    15    2
    19     8    16    1
    20     9    13   ar
    21     9    17   ar
    22    10    12    1
    23    10    26    1
    24    10    27    1
    25    11    15    1
    26    11    28    1
    27    11    29    1
    28    12    13    1
    29    12    30    1
    30    13    19   ar
    31    14    18    1
    32    14    31    1
    33    15    32    1
    34    16    18    2
    35    16    33    1
    36    17    20   ar
    37    17    34    1
    38    18    35    1
    39    19    21   ar
    40    19    36    1
    41    20    21   ar
    42    22    38    1
    43    22    39    1
    44    23    40    1
    45    23    41    1
    46    23    42    1
