@<TRIPOS>MOLECULE
IMPHY000194
 100 104 0 0 0
SMALL
GASTEIGER

@<TRIPOS>ATOM
      1 O           8.1159    6.8357    0.0000 O.3     1  UNL1       -0.4802
      2 O           4.8555   -7.0644    0.0000 O.3     1  UNL1       -0.4802
      3 O           6.6060    7.6843    0.0000 O.2     1  UNL1       -0.2504
      4 O           3.1235   -7.0443    0.0000 O.2     1  UNL1       -0.2504
      5 C           5.7320    4.4177    0.0000 C.3     1  UNL1       -0.0183
      6 C           5.7320    5.4177    0.0000 C.3     1  UNL1       -0.0190
      7 C           4.0000   -3.7784    0.0000 C.3     1  UNL1       -0.0183
      8 C           3.5000   -4.6444    0.0000 C.3     1  UNL1       -0.0190
      9 C           6.6260    5.9524    0.0000 C.3     1  UNL1        0.0681
     10 C           4.0068   -5.5544    0.0000 C.3     1  UNL1        0.0681
     11 C           4.8660    3.9177    0.0000 C.3     1  UNL1        0.0036
     12 C           6.6260    3.8831    0.0000 C.3     1  UNL1       -0.0465
     13 C           3.5000   -2.9124    0.0000 C.3     1  UNL1        0.0039
     14 C           5.0415   -3.7624    0.0000 C.3     1  UNL1       -0.0465
     15 C           4.8660    5.9177    0.0000 C.3     1  UNL1       -0.0450
     16 C           7.5321    5.4385    0.0000 C.3     1  UNL1       -0.0372
     17 C           2.5000   -4.6444    0.0000 C.3     1  UNL1       -0.0450
     18 C           5.0484   -5.5625    0.0000 C.3     1  UNL1       -0.0372
     19 C           7.5321    4.3969    0.0000 C.3     1  UNL1       -0.0515
     20 C           5.5693   -4.6604    0.0000 C.3     1  UNL1       -0.0515
     21 C           5.7320    3.4177    0.0000 C.3     1  UNL1       -0.0585
     22 C           4.0000    5.4177    0.0000 C.3     1  UNL1       -0.0311
     23 C           4.5000   -2.9124    0.0000 C.3     1  UNL1       -0.0585
     24 C           4.0000    4.4177    0.0000 C.2     1  UNL1       -0.0693
     25 C           2.0000   -3.7784    0.0000 C.3     1  UNL1       -0.0311
     26 C           2.5000   -2.9124    0.0000 C.2     1  UNL1       -0.0693
     27 C           6.1160    6.8126    0.0000 C.3     1  UNL1       -0.0491
     28 C           3.1351   -6.0444    0.0000 C.3     1  UNL1       -0.0491
     29 C           7.1160    6.8241    0.0000 C.2     1  UNL1        0.3110
     30 C           4.8660    2.9177    0.0000 C.2     1  UNL1       -0.0795
     31 C           3.9953   -6.5544    0.0000 C.2     1  UNL1        0.3110
     32 C           4.0000   -2.0464    0.0000 C.2     1  UNL1       -0.0761
     33 C           4.0000    2.4177    0.0000 C.2     1  UNL1       -0.0772
     34 C           4.0000    1.4177    0.0000 C.3     1  UNL1        0.0107
     35 C           3.1340    3.9177    0.0000 C.2     1  UNL1       -0.0989
     36 C           2.0000   -2.0464    0.0000 C.2     1  UNL1       -0.0989
     37 C           3.5000   -1.1804    0.0000 C.2     1  UNL1       -0.0622
     38 C           3.5000    0.5517    0.0000 C.3     1  UNL1       -0.0154
     39 C           4.0000   -0.3143    0.0000 C.2     1  UNL1       -0.0504
     40 C           5.0000    1.4177    0.0000 C.3     1  UNL1       -0.0367
     41 C           5.5000    0.5517    0.0000 C.3     1  UNL1       -0.0331
     42 C           5.0000   -0.3143    0.0000 C.2     1  UNL1       -0.0808
     43 C           3.1340    1.9177    0.0000 C.2     1  UNL1       -0.0809
     44 C           2.2680    1.4177    0.0000 C.2     1  UNL1       -0.1018
     45 H           5.7273    6.0377    0.0000 H       1  UNL1        0.0317
     46 H           3.1859   -5.1790    0.0000 H       1  UNL1        0.0317
     47 H           4.3291    3.6077    0.0000 H       1  UNL1        0.0393
     48 H           6.2214    3.4133    0.0000 H       1  UNL1        0.0271
     49 H           7.0196    3.4040    0.0000 H       1  UNL1        0.0271
     50 H           3.1900   -2.3755    0.0000 H       1  UNL1        0.0393
     51 H           5.6219   -3.5443    0.0000 H       1  UNL1        0.0271
     52 H           4.9260   -3.1532    0.0000 H       1  UNL1        0.0271
     53 H           5.2646    6.3927    0.0000 H       1  UNL1        0.0271
     54 H           4.4675    6.3927    0.0000 H       1  UNL1        0.0271
     55 H           8.1429    5.3324    0.0000 H       1  UNL1        0.0276
     56 H           7.7411    6.0222    0.0000 H       1  UNL1        0.0276
     57 H           1.9174   -4.8565    0.0000 H       1  UNL1        0.0271
     58 H           2.6077   -5.2550    0.0000 H       1  UNL1        0.0271
     59 H           4.9376   -6.1725    0.0000 H       1  UNL1        0.0276
     60 H           5.6305   -5.7760    0.0000 H       1  UNL1        0.0276
     61 H           7.7411    3.8132    0.0000 H       1  UNL1        0.0266
     62 H           8.1429    4.5030    0.0000 H       1  UNL1        0.0266
     63 H           6.0452   -5.0577    0.0000 H       1  UNL1        0.0266
     64 H           6.0422   -4.2594    0.0000 H       1  UNL1        0.0266
     65 H           5.1120    3.4177    0.0000 H       1  UNL1        0.0235
     66 H           5.7320    2.7977    0.0000 H       1  UNL1        0.0235
     67 H           6.3520    3.4177    0.0000 H       1  UNL1        0.0235
     68 H           3.7880    6.0003    0.0000 H       1  UNL1        0.0310
     69 H           3.3894    5.3101    0.0000 H       1  UNL1        0.0310
     70 H           5.0369   -3.2224    0.0000 H       1  UNL1        0.0235
     71 H           4.8100   -2.3755    0.0000 H       1  UNL1        0.0235
     72 H           3.9631   -2.6024    0.0000 H       1  UNL1        0.0235
     73 H           1.5250   -3.3799    0.0000 H       1  UNL1        0.0310
     74 H           1.5250   -4.1770    0.0000 H       1  UNL1        0.0310
     75 H           6.6493    7.1288    0.0000 H       1  UNL1        0.0240
     76 H           5.7998    7.3459    0.0000 H       1  UNL1        0.0240
     77 H           5.5827    6.4964    0.0000 H       1  UNL1        0.0240
     78 H           2.8313   -5.5039    0.0000 H       1  UNL1        0.0240
     79 H           2.5946   -6.3482    0.0000 H       1  UNL1        0.0240
     80 H           3.4389   -6.5849    0.0000 H       1  UNL1        0.0240
     81 H           5.4030    2.6077    0.0000 H       1  UNL1        0.0575
     82 H           4.6200   -2.0464    0.0000 H       1  UNL1        0.0578
     83 H           3.4631    2.7277    0.0000 H       1  UNL1        0.0578
     84 H           2.5970    4.2277    0.0000 H       1  UNL1        0.0535
     85 H           3.1340    3.2977    0.0000 H       1  UNL1        0.0535
     86 H           2.3100   -1.5094    0.0000 H       1  UNL1        0.0535
     87 H           1.3800   -2.0464    0.0000 H       1  UNL1        0.0535
     88 H           2.8800   -1.1804    0.0000 H       1  UNL1        0.0617
     89 H           3.0250    0.9502    0.0000 H       1  UNL1        0.0324
     90 H           3.0250    0.1532    0.0000 H       1  UNL1        0.0324
     91 H           5.5826    1.6298    0.0000 H       1  UNL1        0.0280
     92 H           4.8923    2.0283    0.0000 H       1  UNL1        0.0280
     93 H           8.4197    7.3762    0.0000 H       1  UNL1        0.2951
     94 H           4.8483   -7.6843    0.0000 H       1  UNL1        0.2951
     95 H           5.9750    0.1532    0.0000 H       1  UNL1        0.0308
     96 H           5.9750    0.9502    0.0000 H       1  UNL1        0.0308
     97 H           5.3100   -0.8513    0.0000 H       1  UNL1        0.0575
     98 H           3.1340    2.5377    0.0000 H       1  UNL1        0.0575
     99 H           1.7310    1.7277    0.0000 H       1  UNL1        0.0532
    100 H           2.2680    0.7977    0.0000 H       1  UNL1        0.0532
@<TRIPOS>BOND
     1     1    29    1
     2     1    93    1
     3     2    31    1
     4     2    94    1
     5     3    29    2
     6     4    31    2
     7     5     6    1
     8     5    11    1
     9     5    12    1
    10     5    21    1
    11     6     9    1
    12     6    15    1
    13     6    45    1
    14     7     8    1
    15     7    13    1
    16     7    14    1
    17     7    23    1
    18     8    10    1
    19     8    17    1
    20     8    46    1
    21     9    16    1
    22     9    27    1
    23     9    29    1
    24    10    18    1
    25    10    28    1
    26    10    31    1
    27    11    24    1
    28    11    30    1
    29    11    47    1
    30    12    19    1
    31    12    48    1
    32    12    49    1
    33    13    26    1
    34    13    32    1
    35    13    50    1
    36    14    20    1
    37    14    51    1
    38    14    52    1
    39    15    22    1
    40    15    53    1
    41    15    54    1
    42    16    19    1
    43    16    55    1
    44    16    56    1
    45    17    25    1
    46    17    57    1
    47    17    58    1
    48    18    20    1
    49    18    59    1
    50    18    60    1
    51    19    61    1
    52    19    62    1
    53    20    63    1
    54    20    64    1
    55    21    65    1
    56    21    66    1
    57    21    67    1
    58    22    24    1
    59    22    68    1
    60    22    69    1
    61    23    70    1
    62    23    71    1
    63    23    72    1
    64    24    35    2
    65    25    26    1
    66    25    73    1
    67    25    74    1
    68    26    36    2
    69    27    75    1
    70    27    76    1
    71    27    77    1
    72    28    78    1
    73    28    79    1
    74    28    80    1
    75    30    33    2
    76    30    81    1
    77    32    37    2
    78    32    82    1
    79    33    34    1
    80    33    83    1
    81    34    38    1
    82    34    40    1
    83    34    43    1
    84    35    84    1
    85    35    85    1
    86    36    86    1
    87    36    87    1
    88    37    39    1
    89    37    88    1
    90    38    39    1
    91    38    89    1
    92    38    90    1
    93    39    42    2
    94    40    41    1
    95    40    91    1
    96    40    92    1
    97    41    42    1
    98    41    95    1
    99    41    96    1
   100    42    97    1
   101    43    44    2
   102    43    98    1
   103    44    99    1
   104    44   100    1
