@<TRIPOS>MOLECULE
IMPHY004759
 52 55 0 0 0
SMALL
GASTEIGER

@<TRIPOS>ATOM
      1 O           4.2690   -2.4276    0.0000 O.3     1  UNL1       -0.3313
      2 O           6.0010   -2.4276    0.0000 O.3     1  UNL1       -0.4608
      3 O           4.2690   -5.4276    0.0000 O.3     1  UNL1       -0.3864
      4 O           2.5369   -4.4276    0.0000 O.3     1  UNL1       -0.3865
      5 O           6.0010   -4.4276    0.0000 O.3     1  UNL1       -0.3829
      6 O           2.5369   -1.4276    0.0000 O.3     1  UNL1       -0.3924
      7 O           6.8671    2.0724    0.0000 O.3     1  UNL1       -0.4830
      8 O           4.2690    3.5724    0.0000 O.2     1  UNL1       -0.2918
      9 O           8.6530    5.1175    0.0000 O.3     1  UNL1       -0.5066
     10 C           4.2690   -4.4276    0.0000 C.3     1  UNL1        0.1152
     11 C           3.4030   -3.9276    0.0000 C.3     1  UNL1        0.1120
     12 C           5.1350   -3.9276    0.0000 C.3     1  UNL1        0.1454
     13 C           3.4030   -2.9276    0.0000 C.3     1  UNL1        0.1140
     14 C           5.1350   -2.9276    0.0000 C.3     1  UNL1        0.2308
     15 C           2.5369   -2.4276    0.0000 C.3     1  UNL1        0.0731
     16 C           6.0010    1.5724    0.0000 C.3     1  UNL1        0.1322
     17 C           6.0010   -1.4276    0.0000 C.ar    1  UNL1        0.1240
     18 C           6.0010    0.5724    0.0000 C.ar    1  UNL1       -0.0067
     19 C           5.1350    2.0724    0.0000 C.3     1  UNL1        0.0519
     20 C           6.8671   -0.9276    0.0000 C.ar    1  UNL1       -0.0195
     21 C           5.1350   -0.9276    0.0000 C.ar    1  UNL1       -0.0195
     22 C           6.8671    0.0725    0.0000 C.ar    1  UNL1       -0.0516
     23 C           5.1350    0.0725    0.0000 C.ar    1  UNL1       -0.0516
     24 C           5.1350    3.0724    0.0000 C.2     1  UNL1        0.1705
     25 C           6.0010    3.5724    0.0000 C.ar    1  UNL1        0.0594
     26 C           6.8671    3.0724    0.0000 C.ar    1  UNL1        0.1353
     27 C           5.9850    4.6140    0.0000 C.ar    1  UNL1       -0.0443
     28 C           7.7771    3.5793    0.0000 C.ar    1  UNL1        0.0223
     29 C           7.7851    4.6209    0.0000 C.ar    1  UNL1        0.1204
     30 C           6.8830    5.1417    0.0000 C.ar    1  UNL1       -0.0193
     31 H           4.8059   -4.7376    0.0000 H       1  UNL1        0.0648
     32 H           2.8660   -3.6176    0.0000 H       1  UNL1        0.0647
     33 H           5.6720   -3.6176    0.0000 H       1  UNL1        0.0683
     34 H           3.4030   -2.3076    0.0000 H       1  UNL1        0.0647
     35 H           5.1350   -2.3076    0.0000 H       1  UNL1        0.1084
     36 H           1.9264   -2.3199    0.0000 H       1  UNL1        0.0584
     37 H           2.3249   -3.0102    0.0000 H       1  UNL1        0.0584
     38 H           3.7320   -5.7376    0.0000 H       1  UNL1        0.2100
     39 H           2.0000   -4.1175    0.0000 H       1  UNL1        0.2100
     40 H           6.5380   -4.1175    0.0000 H       1  UNL1        0.2102
     41 H           6.5380    1.2624    0.0000 H       1  UNL1        0.0789
     42 H           4.5244    2.1801    0.0000 H       1  UNL1        0.0385
     43 H           4.9230    1.4898    0.0000 H       1  UNL1        0.0385
     44 H           7.4040   -1.2376    0.0000 H       1  UNL1        0.0654
     45 H           4.5981   -1.2376    0.0000 H       1  UNL1        0.0654
     46 H           2.0000   -1.1176    0.0000 H       1  UNL1        0.2095
     47 H           7.4040    0.3824    0.0000 H       1  UNL1        0.0623
     48 H           4.5981    0.3824    0.0000 H       1  UNL1        0.0623
     49 H           5.4445    4.9177    0.0000 H       1  UNL1        0.0627
     50 H           8.3104    3.2631    0.0000 H       1  UNL1        0.0691
     51 H           6.8806    5.7617    0.0000 H       1  UNL1        0.0654
     52 H           8.6554    5.7376    0.0000 H       1  UNL1        0.2921
@<TRIPOS>BOND
     1     1    13    1
     2     1    14    1
     3    14     2    1
     4     2    17    1
     5    10     3    1
     6     3    38    1
     7    11     4    1
     8     4    39    1
     9    12     5    1
    10     5    40    1
    11     6    15    1
    12     6    46    1
    13     7    16    1
    14     7    26    1
    15     8    24    2
    16     9    29    1
    17     9    52    1
    18    10    11    1
    19    10    12    1
    20    10    31    1
    21    11    13    1
    22    11    32    1
    23    12    14    1
    24    12    33    1
    25    13    15    1
    26    13    34    1
    27    14    35    1
    28    15    36    1
    29    15    37    1
    30    16    18    1
    31    16    19    1
    32    16    41    1
    33    17    20   ar
    34    17    21   ar
    35    18    22   ar
    36    18    23   ar
    37    19    24    1
    38    19    42    1
    39    19    43    1
    40    20    22   ar
    41    20    44    1
    42    21    23   ar
    43    21    45    1
    44    22    47    1
    45    23    48    1
    46    24    25    1
    47    25    26   ar
    48    25    27   ar
    49    26    28   ar
    50    27    30   ar
    51    27    49    1
    52    28    29   ar
    53    28    50    1
    54    29    30   ar
    55    30    51    1
