@<TRIPOS>MOLECULE
IMPHY007285
 25 27 0 0 0
SMALL
GASTEIGER

@<TRIPOS>ATOM
      1 S           5.7021   -0.2148    0.0000 S.3     1  UNL1       -0.0810
      2 S           6.5111    1.3730    0.0000 S.3     1  UNL1       -0.1029
      3 O           6.3388   -1.3328    0.0000 O.co2   1  UNL1       -0.8620
      4 N           4.7511   -2.1419    0.0000 N.2     1  UNL1       -0.2656
      5 N           4.7511    1.0942    0.0000 N.2     1  UNL1       -0.2684
      6 C           4.7511   -0.5238    0.0000 C.3     1  UNL1        0.0972
      7 C           3.8000   -0.8328    0.0000 C.ar    1  UNL1        0.0007
      8 C           4.1633    0.2852    0.0000 C.3     1  UNL1        0.0650
      9 C           5.3388   -1.3328    0.0000 C.2     1  UNL1       -0.0122
     10 C           3.8000   -1.8328    0.0000 C.ar    1  UNL1        0.0678
     11 C           2.9061   -0.2982    0.0000 C.ar    1  UNL1       -0.0548
     12 C           5.7021    0.7852    0.0000 C.2     1  UNL1        0.1262
     13 C           2.9061   -2.3675    0.0000 C.ar    1  UNL1       -0.0360
     14 C           2.0000   -0.8120    0.0000 C.ar    1  UNL1       -0.0613
     15 C           2.0000   -1.8537    0.0000 C.ar    1  UNL1       -0.0597
     16 C           6.4066    2.3675    0.0000 C.3     1  UNL1       -0.0116
     17 H           3.7025    0.7001    0.0000 H       1  UNL1        0.0529
     18 H           3.7025   -0.1297    0.0000 H       1  UNL1        0.0529
     19 H           2.9132    0.3218    0.0000 H       1  UNL1        0.0621
     20 H           2.9132   -2.9875    0.0000 H       1  UNL1        0.0639
     21 H           1.4643   -0.5000    0.0000 H       1  UNL1        0.0618
     22 H           1.4643   -2.1657    0.0000 H       1  UNL1        0.0618
     23 H           7.0232    2.4323    0.0000 H       1  UNL1        0.0344
     24 H           6.3418    2.9841    0.0000 H       1  UNL1        0.0344
     25 H           5.7900    2.3027    0.0000 H       1  UNL1        0.0344
@<TRIPOS>UNITY_ATOM_ATTR
3 1
charge -1
@<TRIPOS>BOND
     1     1     6    1
     2     1    12    1
     3     2    12    1
     4     2    16    1
     5     3     9    1
     6     4     9    2
     7     4    10    1
     8     5     8    1
     9     5    12    2
    10     6     7    1
    11     6     8    1
    12     6     9    1
    13     7    10   ar
    14     7    11   ar
    15     8    17    1
    16     8    18    1
    17    10    13   ar
    18    11    14   ar
    19    11    19    1
    20    13    15   ar
    21    13    20    1
    22    14    15   ar
    23    14    21    1
    24    15    22    1
    25    16    23    1
    26    16    24    1
    27    16    25    1
