@<TRIPOS>MOLECULE
IMPHY007774
 85 90 0 0 0
SMALL
GASTEIGER

@<TRIPOS>ATOM
      1 O           5.5954   -2.9872    0.0000 O.3     1  UNL1       -0.3448
      2 O           3.9300   -1.9061    0.0000 O.3     1  UNL1       -0.3480
      3 O          11.0589   -1.2766    0.0000 O.3     1  UNL1       -0.4612
      4 O          12.0027    2.3920    0.0000 O.3     1  UNL1       -0.4615
      5 O          10.1871   -2.7732    0.0000 O.2     1  UNL1       -0.2512
      6 O          11.1309    3.8886    0.0000 O.2     1  UNL1       -0.2512
      7 C           6.6628   -0.7524    0.0000 C.3     1  UNL1       -0.0233
      8 C           7.5288   -1.2524    0.0000 C.3     1  UNL1       -0.0297
      9 C           8.3948   -0.7524    0.0000 C.3     1  UNL1       -0.0309
     10 C           5.9258   -1.4195    0.0000 C.3     1  UNL1       -0.0015
     11 C           8.3948    0.2476    0.0000 C.3     1  UNL1       -0.0320
     12 C           9.2888    0.7822    0.0000 C.3     1  UNL1       -0.0226
     13 C           6.3309   -2.3273    0.0000 C.3     1  UNL1        0.0660
     14 C           7.3196   -2.2242    0.0000 C.3     1  UNL1       -0.0226
     15 C           6.6628    0.2476    0.0000 C.3     1  UNL1       -0.0467
     16 C           7.5288    0.7476    0.0000 C.3     1  UNL1       -0.0489
     17 C           4.9434   -1.5262    0.0000 C.3     1  UNL1        0.0160
     18 C          10.1949    0.2684    0.0000 C.3     1  UNL1        0.0052
     19 C           9.2888   -1.2871    0.0000 C.3     1  UNL1       -0.0120
     20 C          10.1949   -0.7732    0.0000 C.3     1  UNL1        0.1067
     21 C           4.7396   -2.4932    0.0000 C.3     1  UNL1        0.1732
     22 C           5.7968   -0.2524    0.0000 C.3     1  UNL1       -0.0590
     23 C           9.2637    1.8670    0.0000 C.3     1  UNL1       -0.0436
     24 C          11.1386    0.8036    0.0000 C.3     1  UNL1       -0.0090
     25 C           8.4189    1.2756    0.0000 C.3     1  UNL1       -0.0589
     26 C          10.1949    2.4239    0.0000 C.3     1  UNL1       -0.0151
     27 C           4.2723   -0.7848    0.0000 C.3     1  UNL1       -0.0572
     28 C          11.1386    1.8886    0.0000 C.3     1  UNL1        0.1035
     29 C           4.6359   -3.4878    0.0000 C.3     1  UNL1        0.0020
     30 C           3.7227   -3.8953    0.0000 C.3     1  UNL1       -0.0435
     31 C           3.0169   -2.3136    0.0000 C.3     1  UNL1        0.0535
     32 C           2.9132   -3.3082    0.0000 C.3     1  UNL1       -0.0201
     33 C          11.0551   -2.2766    0.0000 C.2     1  UNL1        0.3042
     34 C           2.0000   -3.7157    0.0000 C.3     1  UNL1       -0.0603
     35 C          11.9989    3.3920    0.0000 C.2     1  UNL1        0.3042
     36 C          11.9192   -2.7799    0.0000 C.3     1  UNL1        0.0332
     37 C          12.8630    3.8953    0.0000 C.3     1  UNL1        0.0332
     38 H           8.2158   -1.7529    0.0000 H       1  UNL1        0.0310
     39 H           8.3883   -1.6024    0.0000 H       1  UNL1        0.0308
     40 H           5.5777   -0.6440    0.0000 H       1  UNL1        0.0335
     41 H           9.1342   -0.1717    0.0000 H       1  UNL1        0.0309
     42 H           6.6756   -3.1042    0.0000 H       1  UNL1        0.0600
     43 H           7.3187   -2.8442    0.0000 H       1  UNL1        0.0293
     44 H           7.9361   -2.2903    0.0000 H       1  UNL1        0.0293
     45 H           6.4507    0.8302    0.0000 H       1  UNL1        0.0271
     46 H           6.0522    0.1399    0.0000 H       1  UNL1        0.0271
     47 H           7.9274    1.2225    0.0000 H       1  UNL1        0.0268
     48 H           7.1303    1.2225    0.0000 H       1  UNL1        0.0268
     49 H           4.1228   -1.7480    0.0000 H       1  UNL1        0.0354
     50 H          10.9293   -0.1594    0.0000 H       1  UNL1        0.0343
     51 H           8.8842   -1.7569    0.0000 H       1  UNL1        0.0304
     52 H           9.6824   -1.7661    0.0000 H       1  UNL1        0.0304
     53 H          10.1899   -1.6232    0.0000 H       1  UNL1        0.0737
     54 H           6.1068    0.2845    0.0000 H       1  UNL1        0.0235
     55 H           5.2598    0.0576    0.0000 H       1  UNL1        0.0235
     56 H           5.4868   -0.7894    0.0000 H       1  UNL1        0.0235
     57 H           9.0412    2.4456    0.0000 H       1  UNL1        0.0272
     58 H           8.6555    1.7468    0.0000 H       1  UNL1        0.0272
     59 H          11.3477    0.2199    0.0000 H       1  UNL1        0.0305
     60 H          11.7495    0.9097    0.0000 H       1  UNL1        0.0305
     61 H           8.7248    1.8149    0.0000 H       1  UNL1        0.0235
     62 H           7.8796    1.5814    0.0000 H       1  UNL1        0.0235
     63 H           8.1131    0.7362    0.0000 H       1  UNL1        0.0235
     64 H          10.5885    2.9029    0.0000 H       1  UNL1        0.0301
     65 H           9.7903    2.8936    0.0000 H       1  UNL1        0.0301
     66 H           4.7320   -0.3687    0.0000 H       1  UNL1        0.0234
     67 H           3.8562   -0.3251    0.0000 H       1  UNL1        0.0234
     68 H           3.8126   -1.2008    0.0000 H       1  UNL1        0.0234
     69 H          11.1337    2.7386    0.0000 H       1  UNL1        0.0734
     70 H           4.7864   -4.0892    0.0000 H       1  UNL1        0.0317
     71 H           5.2544   -3.4440    0.0000 H       1  UNL1        0.0317
     72 H           3.2771   -4.3264    0.0000 H       1  UNL1        0.0270
     73 H           4.0699   -4.4090    0.0000 H       1  UNL1        0.0270
     74 H           2.8664   -1.7121    0.0000 H       1  UNL1        0.0563
     75 H           2.3984   -2.3574    0.0000 H       1  UNL1        0.0563
     76 H           2.2251   -2.8092    0.0000 H       1  UNL1        0.0320
     77 H           1.7473   -3.1496    0.0000 H       1  UNL1        0.0233
     78 H           1.4338   -3.9684    0.0000 H       1  UNL1        0.0233
     79 H           2.2527   -4.2819    0.0000 H       1  UNL1        0.0233
     80 H          11.6071   -3.3156    0.0000 H       1  UNL1        0.0342
     81 H          12.4549   -3.0920    0.0000 H       1  UNL1        0.0342
     82 H          12.2313   -2.2442    0.0000 H       1  UNL1        0.0342
     83 H          13.1750    3.3596    0.0000 H       1  UNL1        0.0342
     84 H          13.3987    4.2074    0.0000 H       1  UNL1        0.0342
     85 H          12.5509    4.4310    0.0000 H       1  UNL1        0.0342
@<TRIPOS>BOND
     1     1    13    1
     2     1    21    1
     3     2    21    1
     4     2    31    1
     5     3    20    1
     6     3    33    1
     7     4    28    1
     8     4    35    1
     9     5    33    2
    10     6    35    2
    11     7     8    1
    12     7    10    1
    13     7    15    1
    14     7    22    1
    15     8     9    1
    16     8    14    1
    17     8    38    1
    18     9    11    1
    19     9    19    1
    20     9    39    1
    21    10    13    1
    22    10    17    1
    23    10    40    1
    24    11    12    1
    25    11    16    1
    26    11    41    1
    27    12    18    1
    28    12    23    1
    29    12    25    1
    30    13    14    1
    31    13    42    1
    32    14    43    1
    33    14    44    1
    34    15    16    1
    35    15    45    1
    36    15    46    1
    37    16    47    1
    38    16    48    1
    39    17    21    1
    40    17    27    1
    41    17    49    1
    42    18    20    1
    43    18    24    1
    44    18    50    1
    45    19    20    1
    46    19    51    1
    47    19    52    1
    48    20    53    1
    49    21    29    1
    50    22    54    1
    51    22    55    1
    52    22    56    1
    53    23    26    1
    54    23    57    1
    55    23    58    1
    56    24    28    1
    57    24    59    1
    58    24    60    1
    59    25    61    1
    60    25    62    1
    61    25    63    1
    62    26    28    1
    63    26    64    1
    64    26    65    1
    65    27    66    1
    66    27    67    1
    67    27    68    1
    68    28    69    1
    69    29    30    1
    70    29    70    1
    71    29    71    1
    72    30    32    1
    73    30    72    1
    74    30    73    1
    75    31    32    1
    76    31    74    1
    77    31    75    1
    78    32    34    1
    79    32    76    1
    80    33    36    1
    81    34    77    1
    82    34    78    1
    83    34    79    1
    84    35    37    1
    85    36    80    1
    86    36    81    1
    87    36    82    1
    88    37    83    1
    89    37    84    1
    90    37    85    1
