@<TRIPOS>MOLECULE
IMPHY007003
 53 55 0 0 0
SMALL
GASTEIGER

@<TRIPOS>ATOM
      1 O           4.2510    0.5141    0.0000 O.3     1  UNL1       -0.4573
      2 O           6.7910    0.0252    0.0000 O.3     1  UNL1       -0.4582
      3 O           2.4384   -1.2113    0.0000 O.3     1  UNL1       -0.3754
      4 O           6.2032   -2.4072    0.0000 O.3     1  UNL1       -0.3774
      5 O           3.8527   -2.6254    0.0000 O.3     1  UNL1       -0.3887
      6 O           2.5383    0.5252    0.0000 O.2     1  UNL1       -0.2475
      7 O           7.6571   -1.4524    0.0000 O.2     1  UNL1       -0.2476
      8 N           5.0977    2.9582    0.0000 N.3     1  UNL1       -0.2886
      9 C           5.0977    1.9806    0.0000 C.3     1  UNL1        0.0723
     10 C           4.2510    1.4917    0.0000 C.3     1  UNL1        0.1236
     11 C           3.5564    2.4205    0.0000 C.3     1  UNL1       -0.0010
     12 C           4.0778    3.2026    0.0000 C.3     1  UNL1        0.0033
     13 C           5.9444    1.4917    0.0000 C.2     1  UNL1       -0.0148
     14 C           6.0332    3.2243    0.0000 C.3     1  UNL1        0.0182
     15 C           6.6415    2.4205    0.0000 C.2     1  UNL1       -0.0660
     16 C           3.4043   -0.9524    0.0000 C.3     1  UNL1        0.1881
     17 C           5.0977   -0.9524    0.0000 C.3     1  UNL1       -0.0016
     18 C           4.2510   -1.4413    0.0000 C.3     1  UNL1       -0.0053
     19 C           5.9444    0.5141    0.0000 C.3     1  UNL1        0.1153
     20 C           5.9444   -1.4413    0.0000 C.3     1  UNL1        0.1618
     21 C           3.4043    0.0252    0.0000 C.2     1  UNL1        0.3421
     22 C           3.1455   -1.9184    0.0000 C.3     1  UNL1        0.0915
     23 C           5.0977    0.0476    0.0000 C.3     1  UNL1       -0.0592
     24 C           6.7910   -0.9524    0.0000 C.2     1  UNL1        0.3394
     25 C           5.3709   -2.2605    0.0000 C.3     1  UNL1       -0.0253
     26 C           2.1796   -2.1771    0.0000 C.3     1  UNL1       -0.0357
     27 H           5.0977    1.1306    0.0000 H       1  UNL1        0.0547
     28 H           3.4444    1.2235    0.0000 H       1  UNL1        0.0753
     29 H           3.0829    2.8206    0.0000 H       1  UNL1        0.0314
     30 H           3.1052    1.9953    0.0000 H       1  UNL1        0.0314
     31 H           4.2921    3.7844    0.0000 H       1  UNL1        0.0428
     32 H           3.5252    3.4836    0.0000 H       1  UNL1        0.0428
     33 H           6.5699    3.5347    0.0000 H       1  UNL1        0.0470
     34 H           5.7913    3.7952    0.0000 H       1  UNL1        0.0470
     35 H           7.2615    2.4217    0.0000 H       1  UNL1        0.0586
     36 H           5.6347   -0.6424    0.0000 H       1  UNL1        0.0332
     37 H           3.8525   -1.9162    0.0000 H       1  UNL1        0.0303
     38 H           4.6495   -1.9162    0.0000 H       1  UNL1        0.0303
     39 H           5.3338    0.6217    0.0000 H       1  UNL1        0.0746
     40 H           5.7323   -0.0685    0.0000 H       1  UNL1        0.0746
     41 H           2.9851   -2.5172    0.0000 H       1  UNL1        0.0625
     42 H           5.7177    0.0476    0.0000 H       1  UNL1        0.0233
     43 H           5.0977    0.6676    0.0000 H       1  UNL1        0.0233
     44 H           4.4777    0.0476    0.0000 H       1  UNL1        0.0233
     45 H           4.8630   -1.9049    0.0000 H       1  UNL1        0.0263
     46 H           5.0153   -2.7684    0.0000 H       1  UNL1        0.0263
     47 H           5.8788   -2.6160    0.0000 H       1  UNL1        0.0263
     48 H           2.0000   -0.7729    0.0000 H       1  UNL1        0.2110
     49 H           2.0191   -1.5783    0.0000 H       1  UNL1        0.0255
     50 H           1.5807   -2.3376    0.0000 H       1  UNL1        0.0255
     51 H           2.3400   -2.7760    0.0000 H       1  UNL1        0.0255
     52 H           6.8021   -2.5677    0.0000 H       1  UNL1        0.2109
     53 H           3.6922   -3.2243    0.0000 H       1  UNL1        0.2099
@<TRIPOS>BOND
     1     1    10    1
     2     1    21    1
     3     2    19    1
     4     2    24    1
     5    16     3    1
     6     3    48    1
     7    20     4    1
     8     4    52    1
     9    22     5    1
    10     5    53    1
    11     6    21    2
    12     7    24    2
    13     8     9    1
    14     8    12    1
    15     8    14    1
    16     9    10    1
    17     9    13    1
    18     9    27    1
    19    10    11    1
    20    10    28    1
    21    11    12    1
    22    11    29    1
    23    11    30    1
    24    12    31    1
    25    12    32    1
    26    13    15    2
    27    13    19    1
    28    14    15    1
    29    14    33    1
    30    14    34    1
    31    15    35    1
    32    16    18    1
    33    16    21    1
    34    16    22    1
    35    17    18    1
    36    17    20    1
    37    17    23    1
    38    17    36    1
    39    18    37    1
    40    18    38    1
    41    19    39    1
    42    19    40    1
    43    20    24    1
    44    20    25    1
    45    22    26    1
    46    22    41    1
    47    23    42    1
    48    23    43    1
    49    23    44    1
    50    25    45    1
    51    25    46    1
    52    25    47    1
    53    26    49    1
    54    26    50    1
    55    26    51    1
