@<TRIPOS>MOLECULE
IMPHY000287
 44 44 0 0 0
SMALL
GASTEIGER

@<TRIPOS>ATOM
      1 O          12.0632   -0.5000    0.0000 O.3     1  UNL1       -0.3513
      2 O          10.3312   -0.5000    0.0000 O.3     1  UNL1       -0.3471
      3 O           2.5369    0.0000    0.0000 O.3     1  UNL1       -0.3910
      4 C          11.1972    1.0000    0.0000 C.3     1  UNL1       -0.0015
      5 C          12.0632    1.5000    0.0000 C.3     1  UNL1       -0.0464
      6 C          11.1972    0.0000    0.0000 C.3     1  UNL1        0.1595
      7 C          12.9292    1.0000    0.0000 C.3     1  UNL1       -0.0292
      8 C          12.9292    0.0000    0.0000 C.3     1  UNL1        0.0507
      9 C           9.4651    0.0000    0.0000 C.3     1  UNL1        0.0715
     10 C           8.5991   -0.5000    0.0000 C.2     1  UNL1       -0.0511
     11 C           6.8671   -0.5000    0.0000 C.3     1  UNL1       -0.0308
     12 C           7.7331    0.0000    0.0000 C.2     1  UNL1       -0.0826
     13 C           6.0010    0.0000    0.0000 C.3     1  UNL1       -0.0285
     14 C           8.5991   -1.5000    0.0000 C.3     1  UNL1       -0.0416
     15 C           5.1350   -0.5000    0.0000 C.2     1  UNL1       -0.0741
     16 C           5.1350   -1.5000    0.0000 C.3     1  UNL1       -0.0437
     17 C           4.2690    0.0000    0.0000 C.2     1  UNL1       -0.0600
     18 C           3.4030   -0.5000    0.0000 C.3     1  UNL1        0.0626
     19 H          10.9851    1.5826    0.0000 H       1  UNL1        0.0314
     20 H          10.5866    0.8923    0.0000 H       1  UNL1        0.0314
     21 H          12.4617    1.9750    0.0000 H       1  UNL1        0.0268
     22 H          11.6647    1.9750    0.0000 H       1  UNL1        0.0268
     23 H          10.6603    0.3100    0.0000 H       1  UNL1        0.0909
     24 H          13.5398    0.8923    0.0000 H       1  UNL1        0.0287
     25 H          13.1413    1.5826    0.0000 H       1  UNL1        0.0287
     26 H          13.1413   -0.5826    0.0000 H       1  UNL1        0.0561
     27 H          13.5398    0.1077    0.0000 H       1  UNL1        0.0561
     28 H           9.8637    0.4749    0.0000 H       1  UNL1        0.0608
     29 H           9.0666    0.4749    0.0000 H       1  UNL1        0.0608
     30 H           6.4685   -0.9749    0.0000 H       1  UNL1        0.0310
     31 H           7.2656   -0.9749    0.0000 H       1  UNL1        0.0310
     32 H           7.7331    0.6200    0.0000 H       1  UNL1        0.0572
     33 H           6.3996    0.4749    0.0000 H       1  UNL1        0.0313
     34 H           5.6025    0.4749    0.0000 H       1  UNL1        0.0313
     35 H           7.9791   -1.5000    0.0000 H       1  UNL1        0.0275
     36 H           8.5991   -2.1200    0.0000 H       1  UNL1        0.0275
     37 H           9.2191   -1.5000    0.0000 H       1  UNL1        0.0275
     38 H           4.5150   -1.5000    0.0000 H       1  UNL1        0.0274
     39 H           5.1350   -2.1200    0.0000 H       1  UNL1        0.0274
     40 H           5.7550   -1.5000    0.0000 H       1  UNL1        0.0274
     41 H           4.2690    0.6200    0.0000 H       1  UNL1        0.0594
     42 H           3.0044   -0.9749    0.0000 H       1  UNL1        0.0601
     43 H           3.8015   -0.9749    0.0000 H       1  UNL1        0.0601
     44 H           2.0000   -0.3100    0.0000 H       1  UNL1        0.2098
@<TRIPOS>BOND
     1     1     6    1
     2     1     8    1
     3     2     6    1
     4     2     9    1
     5     3    18    1
     6     3    44    1
     7     4     5    1
     8     4     6    1
     9     4    19    1
    10     4    20    1
    11     5     7    1
    12     5    21    1
    13     5    22    1
    14     6    23    1
    15     7     8    1
    16     7    24    1
    17     7    25    1
    18     8    26    1
    19     8    27    1
    20     9    10    1
    21     9    28    1
    22     9    29    1
    23    10    12    2
    24    10    14    1
    25    11    12    1
    26    11    13    1
    27    11    30    1
    28    11    31    1
    29    12    32    1
    30    13    15    1
    31    13    33    1
    32    13    34    1
    33    14    35    1
    34    14    36    1
    35    14    37    1
    36    15    16    1
    37    15    17    2
    38    16    38    1
    39    16    39    1
    40    16    40    1
    41    17    18    1
    42    17    41    1
    43    18    42    1
    44    18    43    1
