@<TRIPOS>MOLECULE
IMPHY016929
 42 43 0 0 0
SMALL
GASTEIGER

@<TRIPOS>ATOM
      1 O           6.5566    2.6361    0.0000 O.3     1  UNL1       -0.3947
      2 C           4.4245   -1.0568    0.0000 C.3     1  UNL1       -0.0293
      3 C           4.0835   -2.0057    0.0000 C.3     1  UNL1       -0.0310
      4 C           3.4848   -0.7148    0.0000 C.3     1  UNL1       -0.0163
      5 C           3.1361   -1.6608    0.0000 C.3     1  UNL1       -0.0408
      6 C           5.3642   -0.7148    0.0000 C.3     1  UNL1       -0.0489
      7 C           2.9848    0.1513    0.0000 C.2     1  UNL1       -0.0732
      8 C           3.7434   -2.9461    0.0000 C.3     1  UNL1       -0.0595
      9 C           5.0239   -2.3458    0.0000 C.3     1  UNL1       -0.0595
     10 C           5.8642    0.1513    0.0000 C.3     1  UNL1       -0.0478
     11 C           5.6905    1.1361    0.0000 C.3     1  UNL1       -0.0178
     12 C           3.1585    1.1361    0.0000 C.3     1  UNL1       -0.0317
     13 C           4.9245    1.7789    0.0000 C.3     1  UNL1       -0.0478
     14 C           3.9245    1.7789    0.0000 C.3     1  UNL1       -0.0490
     15 C           2.0000   -0.0224    0.0000 C.2     1  UNL1       -0.0992
     16 C           6.5566    1.6361    0.0000 C.3     1  UNL1        0.0470
     17 H           5.0268   -1.6566    0.0000 H       1  UNL1        0.0312
     18 H           2.6379   -0.7871    0.0000 H       1  UNL1        0.0349
     19 H           2.5540   -1.4472    0.0000 H       1  UNL1        0.0276
     20 H           2.9232   -2.2431    0.0000 H       1  UNL1        0.0276
     21 H           5.4002   -1.3337    0.0000 H       1  UNL1        0.0268
     22 H           5.9675   -0.8577    0.0000 H       1  UNL1        0.0268
     23 H           3.1604   -2.7352    0.0000 H       1  UNL1        0.0235
     24 H           3.5326   -3.5291    0.0000 H       1  UNL1        0.0235
     25 H           4.3265   -3.1569    0.0000 H       1  UNL1        0.0235
     26 H           4.8131   -2.9288    0.0000 H       1  UNL1        0.0235
     27 H           5.6070   -2.5566    0.0000 H       1  UNL1        0.0235
     28 H           5.2348   -1.7627    0.0000 H       1  UNL1        0.0235
     29 H           6.2897   -0.2997    0.0000 H       1  UNL1        0.0269
     30 H           6.4182    0.4295    0.0000 H       1  UNL1        0.0269
     31 H           5.7446    1.7537    0.0000 H       1  UNL1        0.0323
     32 H           2.9129    1.7054    0.0000 H       1  UNL1        0.0310
     33 H           2.5426    1.0641    0.0000 H       1  UNL1        0.0310
     34 H           5.4425    2.1196    0.0000 H       1  UNL1        0.0269
     35 H           4.7467    2.3728    0.0000 H       1  UNL1        0.0269
     36 H           4.1023    2.3728    0.0000 H       1  UNL1        0.0268
     37 H           3.4065    2.1196    0.0000 H       1  UNL1        0.0268
     38 H           1.6015    0.4526    0.0000 H       1  UNL1        0.0534
     39 H           1.7880   -0.6050    0.0000 H       1  UNL1        0.0534
     40 H           6.7686    1.0535    0.0000 H       1  UNL1        0.0560
     41 H           7.1672    1.7437    0.0000 H       1  UNL1        0.0560
     42 H           7.0935    2.9461    0.0000 H       1  UNL1        0.2094
@<TRIPOS>BOND
     1     1    16    1
     2     1    42    1
     3     2     3    1
     4     2     4    1
     5     2     6    1
     6     2    17    1
     7     3     5    1
     8     3     8    1
     9     3     9    1
    10     4     5    1
    11     4     7    1
    12     4    18    1
    13     5    19    1
    14     5    20    1
    15     6    10    1
    16     6    21    1
    17     6    22    1
    18     7    12    1
    19     7    15    2
    20     8    23    1
    21     8    24    1
    22     8    25    1
    23     9    26    1
    24     9    27    1
    25     9    28    1
    26    10    11    1
    27    10    29    1
    28    10    30    1
    29    11    13    1
    30    11    16    1
    31    11    31    1
    32    12    14    1
    33    12    32    1
    34    12    33    1
    35    13    14    1
    36    13    34    1
    37    13    35    1
    38    14    36    1
    39    14    37    1
    40    15    38    1
    41    15    39    1
    42    16    40    1
    43    16    41    1
