@<TRIPOS>MOLECULE
IMPHY011109
 56 61 0 0 0
SMALL
GASTEIGER

@<TRIPOS>ATOM
      1 O           6.9951   -3.8662    0.0000 O.3     1  UNL1       -0.3420
      2 O           8.0703   -3.3944    0.0000 O.3     1  UNL1       -0.3584
      3 O           8.9363   -2.8944    0.0000 O.2     1  UNL1       -0.2910
      4 O           8.7043   -0.0283    0.0000 O.3     1  UNL1       -0.4831
      5 O           2.8990   -1.7584    0.0000 O.3     1  UNL1       -0.4915
      6 O           7.2043    2.5697    0.0000 O.2     1  UNL1       -0.2917
      7 O           2.7586    0.2366    0.0000 O.3     1  UNL1       -0.5033
      8 O           8.7012    3.4739    0.0000 O.3     1  UNL1       -0.5058
      9 O          11.7736    1.7158    0.0000 O.3     1  UNL1       -0.5065
     10 C           5.6013   -3.0615    0.0000 C.3     1  UNL1        0.0019
     11 C           6.3383   -2.3944    0.0000 C.3     1  UNL1        0.0444
     12 C           6.3546   -1.5152    0.0000 C.3     1  UNL1        0.0034
     13 C           8.0703   -1.3944    0.0000 C.3     1  UNL1        0.0545
     14 C           7.2043   -2.8944    0.0000 C.3     1  UNL1        0.2350
     15 C           6.0064   -3.9692    0.0000 C.3     1  UNL1        0.0555
     16 C           8.0703   -2.3944    0.0000 C.2     1  UNL1        0.2001
     17 C           7.2043   -0.8944    0.0000 C.2     1  UNL1       -0.0218
     18 C           6.3383   -1.3944    0.0000 C.2     1  UNL1       -0.0717
     19 C           5.4556   -1.0772    0.0000 C.ar    1  UNL1       -0.0393
     20 C           7.7043   -0.0283    0.0000 C.3     1  UNL1        0.1289
     21 C           7.2043    0.8377    0.0000 C.3     1  UNL1        0.0517
     22 C           4.6268   -1.6368    0.0000 C.ar    1  UNL1       -0.0128
     23 C           5.3853   -0.0797    0.0000 C.ar    1  UNL1       -0.0546
     24 C           7.7043    1.7037    0.0000 C.2     1  UNL1        0.1740
     25 C           3.7278   -1.1988    0.0000 C.ar    1  UNL1        0.1615
     26 C           4.4863    0.3583    0.0000 C.ar    1  UNL1       -0.0163
     27 C           9.2043    0.8377    0.0000 C.ar    1  UNL1        0.1388
     28 C           8.7043    1.7037    0.0000 C.ar    1  UNL1        0.1007
     29 C           3.6576   -0.2013    0.0000 C.ar    1  UNL1        0.1585
     30 C          10.2458    0.8216    0.0000 C.ar    1  UNL1        0.0225
     31 C           9.2112    2.6137    0.0000 C.ar    1  UNL1        0.1343
     32 C          10.7736    1.7196    0.0000 C.ar    1  UNL1        0.1238
     33 C          10.2527    2.6217    0.0000 C.ar    1  UNL1        0.0222
     34 C           2.0000   -1.3205    0.0000 C.3     1  UNL1        0.0790
     35 H           4.9814   -3.0510    0.0000 H       1  UNL1        0.0337
     36 H           6.8752   -2.0844    0.0000 H       1  UNL1        0.0403
     37 H           6.4726   -0.9065    0.0000 H       1  UNL1        0.0362
     38 H           8.6073   -1.0844    0.0000 H       1  UNL1        0.0432
     39 H           5.4168   -4.1610    0.0000 H       1  UNL1        0.0564
     40 H           6.1351   -4.5757    0.0000 H       1  UNL1        0.0564
     41 H           5.8013   -1.0844    0.0000 H       1  UNL1        0.0578
     42 H           8.1293   -0.7645    0.0000 H       1  UNL1        0.0785
     43 H           8.0703   -4.0144    0.0000 H       1  UNL1        0.2132
     44 H           6.7294    1.2362    0.0000 H       1  UNL1        0.0385
     45 H           6.7294    0.4391    0.0000 H       1  UNL1        0.0385
     46 H           4.6703   -2.2553    0.0000 H       1  UNL1        0.0658
     47 H           5.8992    0.2673    0.0000 H       1  UNL1        0.0622
     48 H           4.4428    0.9767    0.0000 H       1  UNL1        0.0655
     49 H          10.5496    0.2811    0.0000 H       1  UNL1        0.0691
     50 H          10.5607    3.1599    0.0000 H       1  UNL1        0.0691
     51 H           2.7150    0.8551    0.0000 H       1  UNL1        0.2923
     52 H           2.2715   -0.7631    0.0000 H       1  UNL1        0.0660
     53 H           1.4426   -1.0489    0.0000 H       1  UNL1        0.0660
     54 H           1.7285   -1.8778    0.0000 H       1  UNL1        0.0660
     55 H           9.0049    4.0144    0.0000 H       1  UNL1        0.2922
     56 H          12.0856    2.2515    0.0000 H       1  UNL1        0.2921
@<TRIPOS>BOND
     1     1    14    1
     2     1    15    1
     3    14     2    1
     4     2    43    1
     5     3    16    2
     6     4    20    1
     7     4    27    1
     8     5    25    1
     9     5    34    1
    10     6    24    2
    11     7    29    1
    12     7    51    1
    13     8    31    1
    14     8    55    1
    15     9    32    1
    16     9    56    1
    17    10    11    1
    18    10    12    1
    19    10    15    1
    20    10    35    1
    21    11    14    1
    22    11    18    1
    23    11    36    1
    24    12    13    1
    25    12    19    1
    26    12    37    1
    27    13    16    1
    28    13    17    1
    29    13    38    1
    30    14    16    1
    31    15    39    1
    32    15    40    1
    33    17    18    2
    34    17    20    1
    35    18    41    1
    36    19    22   ar
    37    19    23   ar
    38    20    21    1
    39    20    42    1
    40    21    24    1
    41    21    44    1
    42    21    45    1
    43    22    25   ar
    44    22    46    1
    45    23    26   ar
    46    23    47    1
    47    24    28    1
    48    25    29   ar
    49    26    29   ar
    50    26    48    1
    51    27    28   ar
    52    27    30   ar
    53    28    31   ar
    54    30    32   ar
    55    30    49    1
    56    31    33   ar
    57    32    33   ar
    58    33    50    1
    59    34    52    1
    60    34    53    1
    61    34    54    1
