@<TRIPOS>MOLECULE
IMPHY017162
 48 48 0 0 0
SMALL
GASTEIGER

@<TRIPOS>ATOM
      1 C           2.8660   -1.7500    0.0000 C.3     1  UNL1       -0.0161
      2 C           3.7320   -1.2500    0.0000 C.3     1  UNL1       -0.0462
      3 C           3.7320   -0.2500    0.0000 C.3     1  UNL1       -0.0525
      4 C           4.5981    0.2500    0.0000 C.3     1  UNL1       -0.0530
      5 C           4.5981    1.2500    0.0000 C.3     1  UNL1       -0.0531
      6 C           5.4641    1.7500    0.0000 C.3     1  UNL1       -0.0531
      7 C           2.0000   -1.2500    0.0000 C.3     1  UNL1       -0.0491
      8 C           2.8660   -2.7500    0.0000 C.ar    1  UNL1       -0.0443
      9 C           5.4641    2.7500    0.0000 C.3     1  UNL1       -0.0531
     10 C           6.3301    3.2500    0.0000 C.3     1  UNL1       -0.0533
     11 C           2.0000   -0.2500    0.0000 C.3     1  UNL1       -0.0647
     12 C           6.3301    4.2500    0.0000 C.3     1  UNL1       -0.0559
     13 C           3.7320   -3.2500    0.0000 C.ar    1  UNL1       -0.0583
     14 C           2.0000   -3.2500    0.0000 C.ar    1  UNL1       -0.0583
     15 C           3.7320   -4.2500    0.0000 C.ar    1  UNL1       -0.0615
     16 C           2.0000   -4.2500    0.0000 C.ar    1  UNL1       -0.0615
     17 C           7.1962    4.7500    0.0000 C.3     1  UNL1       -0.0653
     18 C           2.8660   -4.7500    0.0000 C.ar    1  UNL1       -0.0617
     19 H           2.8660   -0.9000    0.0000 H       1  UNL1        0.0349
     20 H           3.9441   -1.8326    0.0000 H       1  UNL1        0.0271
     21 H           4.3426   -1.1423    0.0000 H       1  UNL1        0.0271
     22 H           3.5200    0.3326    0.0000 H       1  UNL1        0.0265
     23 H           3.1215   -0.3577    0.0000 H       1  UNL1        0.0265
     24 H           4.8101   -0.3326    0.0000 H       1  UNL1        0.0265
     25 H           5.2087    0.3577    0.0000 H       1  UNL1        0.0265
     26 H           4.3860    1.8326    0.0000 H       1  UNL1        0.0265
     27 H           3.9875    1.1423    0.0000 H       1  UNL1        0.0265
     28 H           5.6762    1.1674    0.0000 H       1  UNL1        0.0265
     29 H           6.0747    1.8577    0.0000 H       1  UNL1        0.0265
     30 H           1.3894   -1.1423    0.0000 H       1  UNL1        0.0268
     31 H           1.7880   -1.8326    0.0000 H       1  UNL1        0.0268
     32 H           5.2520    3.3326    0.0000 H       1  UNL1        0.0265
     33 H           4.8535    2.6423    0.0000 H       1  UNL1        0.0265
     34 H           6.5422    2.6674    0.0000 H       1  UNL1        0.0265
     35 H           6.9407    3.3577    0.0000 H       1  UNL1        0.0265
     36 H           2.6200   -0.2500    0.0000 H       1  UNL1        0.0230
     37 H           2.0000    0.3700    0.0000 H       1  UNL1        0.0230
     38 H           1.3800   -0.2500    0.0000 H       1  UNL1        0.0230
     39 H           6.1181    4.8326    0.0000 H       1  UNL1        0.0263
     40 H           5.7196    4.1423    0.0000 H       1  UNL1        0.0263
     41 H           4.2690   -2.9400    0.0000 H       1  UNL1        0.0620
     42 H           1.4631   -2.9400    0.0000 H       1  UNL1        0.0620
     43 H           4.2690   -4.5600    0.0000 H       1  UNL1        0.0618
     44 H           1.4631   -4.5600    0.0000 H       1  UNL1        0.0618
     45 H           7.5062    4.2131    0.0000 H       1  UNL1        0.0230
     46 H           7.7331    5.0600    0.0000 H       1  UNL1        0.0230
     47 H           6.8862    5.2869    0.0000 H       1  UNL1        0.0230
     48 H           2.8660   -5.3700    0.0000 H       1  UNL1        0.0618
@<TRIPOS>BOND
     1     1     2    1
     2     1     7    1
     3     1     8    1
     4     1    19    1
     5     2     3    1
     6     2    20    1
     7     2    21    1
     8     3     4    1
     9     3    22    1
    10     3    23    1
    11     4     5    1
    12     4    24    1
    13     4    25    1
    14     5     6    1
    15     5    26    1
    16     5    27    1
    17     6     9    1
    18     6    28    1
    19     6    29    1
    20     7    11    1
    21     7    30    1
    22     7    31    1
    23     8    13   ar
    24     8    14   ar
    25     9    10    1
    26     9    32    1
    27     9    33    1
    28    10    12    1
    29    10    34    1
    30    10    35    1
    31    11    36    1
    32    11    37    1
    33    11    38    1
    34    12    17    1
    35    12    39    1
    36    12    40    1
    37    13    15   ar
    38    13    41    1
    39    14    16   ar
    40    14    42    1
    41    15    18   ar
    42    15    43    1
    43    16    18   ar
    44    16    44    1
    45    17    45    1
    46    17    46    1
    47    17    47    1
    48    18    48    1
