@<TRIPOS>MOLECULE
IMPHY000487
 22 23 0 0 0
SMALL
GASTEIGER

@<TRIPOS>ATOM
      1 C           2.6369    3.5504    0.0000 C.2     1  UNL1        0.0425
      2 C           3.4718    3.0141    0.0000 C.2     1  UNL1        0.0089
      3 C           2.6548    4.5444    0.0000 C.2     1  UNL1        0.1991
      4 C           1.7645    3.0677    0.0000 C.2     1  UNL1        0.0486
      5 C           3.4914    1.9880    0.0000 C.ar    1  UNL1        0.0342
      6 C           4.3424    3.4700    0.0000 C.2     1  UNL1        0.0377
      7 C           1.8038    5.0593    0.0000 C.2     1  UNL1        0.0874
      8 O           3.2984    4.8948    0.0000 O.2     1  UNL1       -0.2865
      9 C           0.9117    3.5808    0.0000 C.2     1  UNL1        0.2345
     10 C           4.3442    1.4713    0.0000 C.ar    1  UNL1        0.1386
     11 C           2.6208    1.5071    0.0000 C.ar    1  UNL1        0.0030
     12 C           4.3424    4.5820    0.0000 C.2     1  UNL1        0.1736
     13 C           0.9332    4.5784    0.0000 C.2     1  UNL1        0.2374
     14 O           0.1144    3.1285    0.0000 O.2     1  UNL1       -0.2831
     15 C           4.3245    0.4773    0.0000 C.ar    1  UNL1        0.0369
     16 O           5.2488    1.9880    0.0000 O.3     1  UNL1       -0.4714
     17 C           2.5994    0.5095    0.0000 C.ar    1  UNL1        0.0002
     18 O           3.5308    5.0092    0.0000 O.2     1  UNL1       -0.2913
     19 C           5.2684    5.0378    0.0000 C.3     1  UNL1        0.0773
     20 O           0.0000    5.2381    0.0000 O.2     1  UNL1       -0.2830
     21 C           3.4521    0.0000    0.0000 C.ar    1  UNL1        0.0031
     22 C           6.2571    1.4177    0.0000 C.3     1  UNL1        0.2525
@<TRIPOS>BOND
     1     1     2    1
     2     1     3    1
     3     1     4    2
     4     2     5    1
     5     2     6    2
     6     3     7    1
     7     3     8    2
     8     4     9    1
     9     5    10   ar
    10     5    11   ar
    11     6    12    1
    12     7    13    2
    13     9    13    1
    14     9    14    2
    15    10    15   ar
    16    10    16    1
    17    11    17   ar
    18    12    18    2
    19    12    19    1
    20    13    20    1
    21    15    21   ar
    22    16    22    1
    23    17    21   ar
