@<TRIPOS>MOLECULE
IMPHY007192
 24 26 0 0 0
SMALL
GASTEIGER

@<TRIPOS>ATOM
      1 O           4.6660   -2.0000    0.0000 O.2     1  UNL1       -0.2866
      2 O           4.6660    2.0000    0.0000 O.2     1  UNL1       -0.2866
      3 C           5.5321    0.5000    0.0000 C.ar    1  UNL1        0.0331
      4 C           5.5321   -0.5000    0.0000 C.ar    1  UNL1        0.0331
      5 C           3.8000    0.5000    0.0000 C.ar    1  UNL1        0.0331
      6 C           3.8000   -0.5000    0.0000 C.ar    1  UNL1        0.0331
      7 C           4.6660   -1.0000    0.0000 C.2     1  UNL1        0.1945
      8 C           4.6660    1.0000    0.0000 C.2     1  UNL1        0.1945
      9 C           6.4260    1.0347    0.0000 C.ar    1  UNL1       -0.0502
     10 C           6.4260   -1.0347    0.0000 C.ar    1  UNL1       -0.0502
     11 C           2.9061    1.0347    0.0000 C.ar    1  UNL1       -0.0502
     12 C           2.9061   -1.0347    0.0000 C.ar    1  UNL1       -0.0502
     13 C           2.0000   -0.5208    0.0000 C.ar    1  UNL1       -0.0610
     14 C           2.0000    0.5208    0.0000 C.ar    1  UNL1       -0.0610
     15 C           7.3321   -0.5208    0.0000 C.ar    1  UNL1       -0.0610
     16 C           7.3321    0.5208    0.0000 C.ar    1  UNL1       -0.0610
     17 H           6.4188    1.6546    0.0000 H       1  UNL1        0.0625
     18 H           6.4188   -1.6546    0.0000 H       1  UNL1        0.0625
     19 H           2.9132    1.6546    0.0000 H       1  UNL1        0.0625
     20 H           2.9132   -1.6546    0.0000 H       1  UNL1        0.0625
     21 H           7.8678    0.8329    0.0000 H       1  UNL1        0.0618
     22 H           7.8678   -0.8329    0.0000 H       1  UNL1        0.0618
     23 H           1.4643    0.8329    0.0000 H       1  UNL1        0.0618
     24 H           1.4643   -0.8329    0.0000 H       1  UNL1        0.0618
@<TRIPOS>BOND
     1     1     7    2
     2     2     8    2
     3     3     4   ar
     4     3     8    1
     5     3     9   ar
     6     4     7    1
     7     4    10   ar
     8     5     6   ar
     9     5     8    1
    10     5    11   ar
    11     6     7    1
    12     6    12   ar
    13     9    16   ar
    14     9    17    1
    15    10    15   ar
    16    10    18    1
    17    11    14   ar
    18    11    19    1
    19    12    13   ar
    20    12    20    1
    21    13    14   ar
    22    13    24    1
    23    14    23    1
    24    15    16   ar
    25    15    22    1
    26    16    21    1
