@<TRIPOS>MOLECULE
IMPHY006850
 82 87 0 0 0
SMALL
GASTEIGER

@<TRIPOS>ATOM
      1 O           9.1885    2.5322    0.0000 O.3     1  UNL1       -0.3454
      2 O          11.9438    2.9108    0.0000 O.3     1  UNL1       -0.3627
      3 O           2.5357   -3.3934    0.0000 O.3     1  UNL1       -0.3912
      4 O           7.5993    1.7260    0.0000 O.3     1  UNL1       -0.3667
      5 C           7.9288   -0.3411    0.0000 C.3     1  UNL1       -0.0197
      6 C           7.9288   -1.3411    0.0000 C.3     1  UNL1       -0.0051
      7 C           8.8750   -0.0363    0.0000 C.3     1  UNL1       -0.0273
      8 C           6.1968   -1.3411    0.0000 C.3     1  UNL1       -0.0137
      9 C           5.2868   -1.8479    0.0000 C.3     1  UNL1       -0.0218
     10 C           7.0628   -1.8411    0.0000 C.2     1  UNL1       -0.0634
     11 C           7.0628    0.1589    0.0000 C.3     1  UNL1       -0.0460
     12 C           8.8750   -1.6458    0.0000 C.3     1  UNL1       -0.0431
     13 C           5.2787   -2.8895    0.0000 C.3     1  UNL1       -0.0242
     14 C           9.4586   -0.8411    0.0000 C.3     1  UNL1       -0.0485
     15 C           6.1968   -0.3411    0.0000 C.3     1  UNL1       -0.0455
     16 C           9.1857    0.9142    0.0000 C.3     1  UNL1        0.0157
     17 C           4.3433   -3.4392    0.0000 C.3     1  UNL1       -0.0053
     18 C           4.3599   -1.2838    0.0000 C.3     1  UNL1       -0.0444
     19 C           7.9288    0.6589    0.0000 C.3     1  UNL1       -0.0585
     20 C           6.1808   -3.4103    0.0000 C.3     1  UNL1       -0.0306
     21 C           7.9288   -2.3411    0.0000 C.3     1  UNL1       -0.0553
     22 C           7.0789   -2.8826    0.0000 C.2     1  UNL1       -0.0836
     23 C          10.1373    1.2216    0.0000 C.3     1  UNL1       -0.0163
     24 C           3.4037   -2.8967    0.0000 C.3     1  UNL1        0.0606
     25 C           5.2945   -0.8479    0.0000 C.3     1  UNL1       -0.0587
     26 C           3.4120   -1.8118    0.0000 C.3     1  UNL1       -0.0258
     27 C           8.5993    1.7242    0.0000 C.3     1  UNL1        0.1598
     28 C          10.1390    2.2216    0.0000 C.3     1  UNL1        0.0909
     29 C          10.9491    2.8080    0.0000 C.3     1  UNL1        0.1139
     30 C           3.8467   -4.3072    0.0000 C.3     1  UNL1       -0.0572
     31 C           4.8466   -4.3033    0.0000 C.3     1  UNL1       -0.0572
     32 C          11.3574    3.7208    0.0000 C.3     1  UNL1        0.0930
     33 C          12.1674    4.3072    0.0000 C.3     1  UNL1       -0.0335
     34 C          10.4445    4.1291    0.0000 C.3     1  UNL1       -0.0335
     35 H           9.7148    0.0956    0.0000 H       1  UNL1        0.0311
     36 H           6.9329   -0.9161    0.0000 H       1  UNL1        0.0351
     37 H           7.4613    0.6339    0.0000 H       1  UNL1        0.0271
     38 H           6.6643    0.6339    0.0000 H       1  UNL1        0.0271
     39 H           8.6240   -2.2127    0.0000 H       1  UNL1        0.0274
     40 H           9.4124   -1.9550    0.0000 H       1  UNL1        0.0274
     41 H           5.2820   -3.7395    0.0000 H       1  UNL1        0.0315
     42 H           9.9195   -1.2558    0.0000 H       1  UNL1        0.0268
     43 H           9.9195   -0.4263    0.0000 H       1  UNL1        0.0268
     44 H           5.9847    0.2416    0.0000 H       1  UNL1        0.0271
     45 H           5.5862   -0.4487    0.0000 H       1  UNL1        0.0271
     46 H           9.7857    0.3121    0.0000 H       1  UNL1        0.0353
     47 H           4.7681   -0.8172    0.0000 H       1  UNL1        0.0272
     48 H           3.9700   -0.8018    0.0000 H       1  UNL1        0.0272
     49 H           8.5488    0.6589    0.0000 H       1  UNL1        0.0235
     50 H           7.9288    1.2789    0.0000 H       1  UNL1        0.0235
     51 H           7.3088    0.6589    0.0000 H       1  UNL1        0.0235
     52 H           5.7835   -3.8863    0.0000 H       1  UNL1        0.0310
     53 H           6.5818   -3.8832    0.0000 H       1  UNL1        0.0310
     54 H           7.3088   -2.3411    0.0000 H       1  UNL1        0.0238
     55 H           7.9288   -2.9611    0.0000 H       1  UNL1        0.0238
     56 H           8.5488   -2.3411    0.0000 H       1  UNL1        0.0238
     57 H           7.6193   -3.1863    0.0000 H       1  UNL1        0.0572
     58 H          10.2651    0.6149    0.0000 H       1  UNL1        0.0295
     59 H          10.7540    1.2853    0.0000 H       1  UNL1        0.0295
     60 H           2.8686   -2.5836    0.0000 H       1  UNL1        0.0599
     61 H           5.9145   -0.8527    0.0000 H       1  UNL1        0.0235
     62 H           5.2993   -0.2280    0.0000 H       1  UNL1        0.0235
     63 H           4.6745   -0.8432    0.0000 H       1  UNL1        0.0235
     64 H           3.2075   -1.2265    0.0000 H       1  UNL1        0.0290
     65 H           2.8004   -1.9132    0.0000 H       1  UNL1        0.0290
     66 H           8.3188    2.2771    0.0000 H       1  UNL1        0.0910
     67 H          10.0075    3.0613    0.0000 H       1  UNL1        0.0624
     68 H          10.2894    3.3440    0.0000 H       1  UNL1        0.0651
     69 H           4.3109   -4.6154    0.0000 H       1  UNL1        0.0236
     70 H           5.1587   -4.8391    0.0000 H       1  UNL1        0.0236
     71 H           3.3085   -3.9992    0.0000 H       1  UNL1        0.0236
     72 H           5.3824   -3.9912    0.0000 H       1  UNL1        0.0236
     73 H           3.5387   -4.8453    0.0000 H       1  UNL1        0.0236
     74 H           4.3848   -4.6151    0.0000 H       1  UNL1        0.0236
     75 H           2.0000   -3.0813    0.0000 H       1  UNL1        0.2098
     76 H           7.2902    2.2634    0.0000 H       1  UNL1        0.2125
     77 H          10.6977    4.6951    0.0000 H       1  UNL1        0.0258
     78 H           9.8786    4.3823    0.0000 H       1  UNL1        0.0258
     79 H          12.5310    3.8050    0.0000 H       1  UNL1        0.0258
     80 H          12.6696    4.6707    0.0000 H       1  UNL1        0.0258
     81 H          11.8038    4.8094    0.0000 H       1  UNL1        0.0258
     82 H          10.1914    3.5632    0.0000 H       1  UNL1        0.0258
@<TRIPOS>BOND
     1     1    27    1
     2     1    28    1
     3     2    29    1
     4     2    32    1
     5    24     3    1
     6     3    75    1
     7    27     4    1
     8     4    76    1
     9     5     6    1
    10     5     7    1
    11     5    11    1
    12     5    19    1
    13     6    10    1
    14     6    12    1
    15     6    21    1
    16     7    14    1
    17     7    16    1
    18     7    35    1
    19     8     9    1
    20     8    10    1
    21     8    15    1
    22     8    36    1
    23     9    13    1
    24     9    18    1
    25     9    25    1
    26    10    22    2
    27    11    15    1
    28    11    37    1
    29    11    38    1
    30    12    14    1
    31    12    39    1
    32    12    40    1
    33    13    17    1
    34    13    20    1
    35    13    41    1
    36    14    42    1
    37    14    43    1
    38    15    44    1
    39    15    45    1
    40    16    23    1
    41    16    27    1
    42    16    46    1
    43    17    24    1
    44    17    30    1
    45    17    31    1
    46    18    26    1
    47    18    47    1
    48    18    48    1
    49    19    49    1
    50    19    50    1
    51    19    51    1
    52    20    22    1
    53    20    52    1
    54    20    53    1
    55    21    54    1
    56    21    55    1
    57    21    56    1
    58    22    57    1
    59    23    28    1
    60    23    58    1
    61    23    59    1
    62    24    26    1
    63    24    60    1
    64    25    61    1
    65    25    62    1
    66    25    63    1
    67    26    64    1
    68    26    65    1
    69    27    66    1
    70    28    29    1
    71    28    67    1
    72    29    32    1
    73    29    68    1
    74    30    71    1
    75    30    73    1
    76    30    74    1
    77    31    69    1
    78    31    70    1
    79    31    72    1
    80    32    33    1
    81    32    34    1
    82    33    79    1
    83    33    80    1
    84    33    81    1
    85    34    77    1
    86    34    78    1
    87    34    82    1
