@<TRIPOS>MOLECULE
IMPHY002255
 67 72 0 0 0
SMALL
GASTEIGER

@<TRIPOS>ATOM
      1 O          13.3941   -1.0104    0.0000 O.2     1  UNL1       -0.4508
      2 O           6.3999    1.0271    0.0000 O.2     1  UNL1       -0.4544
      3 O          10.7357    2.5104    0.0000 O.3     1  UNL1       -0.4945
      4 O           9.8639   -1.0346    0.0000 O.3     1  UNL1       -0.5060
      5 O          15.1261    0.9896    0.0000 O.3     1  UNL1       -0.5007
      6 O          13.3941    1.9896    0.0000 O.2     1  UNL1       -0.2831
      7 O           2.8698    1.0649    0.0000 O.3     1  UNL1       -0.4949
      8 O           4.6398   -2.0007    0.0000 O.3     1  UNL1       -0.5058
      9 O           6.3883   -1.9729    0.0000 O.2     1  UNL1       -0.2869
     10 O          17.7242   -2.5104    0.0000 O.3     1  UNL1       -0.4951
     11 C          10.7280    0.5104    0.0000 C.ar    1  UNL1        0.0280
     12 C           9.8639    1.0138    0.0000 C.ar    1  UNL1        0.0280
     13 C          12.5280    0.4896    0.0000 C.ar    1  UNL1        0.0685
     14 C          11.6341    1.0243    0.0000 C.ar    1  UNL1       -0.0359
     15 C          12.5280   -0.5104    0.0000 C.ar    1  UNL1        0.1430
     16 C           8.1319    1.0204    0.0000 C.ar    1  UNL1        0.0182
     17 C           8.9960    0.5171    0.0000 C.ar    1  UNL1       -0.0397
     18 C          10.7280   -0.5312    0.0000 C.ar    1  UNL1        0.1282
     19 C           9.8678    2.0138    0.0000 C.ar    1  UNL1        0.1279
     20 C          11.6341   -1.0451    0.0000 C.ar    1  UNL1        0.0235
     21 C           7.2640    0.5238    0.0000 C.ar    1  UNL1        0.1392
     22 C          13.3941    0.9896    0.0000 C.ar    1  UNL1        0.2344
     23 C           8.1358    2.0204    0.0000 C.ar    1  UNL1       -0.0476
     24 C          14.2601   -0.5104    0.0000 C.ar    1  UNL1        0.1806
     25 C           9.0037    2.5171    0.0000 C.ar    1  UNL1       -0.0187
     26 C          14.2601    0.4896    0.0000 C.ar    1  UNL1        0.2081
     27 C           5.5281   -0.4695    0.0000 C.ar    1  UNL1        0.1055
     28 C           5.5319    0.5304    0.0000 C.ar    1  UNL1        0.1462
     29 C           7.2601   -0.4762    0.0000 C.ar    1  UNL1        0.0288
     30 C          15.1261   -1.0104    0.0000 C.ar    1  UNL1        0.0213
     31 C           6.3922   -0.9729    0.0000 C.ar    1  UNL1        0.1966
     32 C           4.6321   -1.0008    0.0000 C.ar    1  UNL1        0.1347
     33 C           4.6400    1.0686    0.0000 C.ar    1  UNL1        0.0233
     34 C           3.7320    0.5582    0.0000 C.ar    1  UNL1        0.1271
     35 C           3.7280   -0.4834    0.0000 C.ar    1  UNL1        0.0225
     36 C          15.1261   -2.0104    0.0000 C.ar    1  UNL1       -0.0475
     37 C          15.9921   -0.5104    0.0000 C.ar    1  UNL1       -0.0475
     38 C          15.9921   -2.5104    0.0000 C.ar    1  UNL1       -0.0193
     39 C          16.8582   -1.0104    0.0000 C.ar    1  UNL1       -0.0193
     40 C          16.8582   -2.0104    0.0000 C.ar    1  UNL1        0.1201
     41 C          10.7396    3.5104    0.0000 C.3     1  UNL1        0.0788
     42 C           2.0000    0.5716    0.0000 C.3     1  UNL1        0.0788
     43 C          17.7242   -3.5104    0.0000 C.3     1  UNL1        0.0788
     44 H          11.6413    1.6442    0.0000 H       1  UNL1        0.0633
     45 H           8.9936   -0.1029    0.0000 H       1  UNL1        0.0632
     46 H          11.6413   -1.6650    0.0000 H       1  UNL1        0.0691
     47 H           7.6000    2.3325    0.0000 H       1  UNL1        0.0626
     48 H           9.0061    3.1371    0.0000 H       1  UNL1        0.0654
     49 H           7.7958   -0.7883    0.0000 H       1  UNL1        0.0693
     50 H           4.6496    1.6885    0.0000 H       1  UNL1        0.0691
     51 H           3.1910   -0.7934    0.0000 H       1  UNL1        0.0691
     52 H          14.5892   -2.3204    0.0000 H       1  UNL1        0.0626
     53 H          15.9921    0.1096    0.0000 H       1  UNL1        0.0626
     54 H           9.8663   -1.6545    0.0000 H       1  UNL1        0.2922
     55 H          15.9921   -3.1304    0.0000 H       1  UNL1        0.0654
     56 H          17.3951   -0.7004    0.0000 H       1  UNL1        0.0654
     57 H          15.1261    1.6096    0.0000 H       1  UNL1        0.2924
     58 H          11.3596    3.5080    0.0000 H       1  UNL1        0.0660
     59 H          10.7420    4.1304    0.0000 H       1  UNL1        0.0660
     60 H          10.1196    3.5128    0.0000 H       1  UNL1        0.0660
     61 H           4.1052   -2.3149    0.0000 H       1  UNL1        0.2922
     62 H           1.6942    1.1109    0.0000 H       1  UNL1        0.0660
     63 H           1.4607    0.2657    0.0000 H       1  UNL1        0.0660
     64 H           2.3058    0.0322    0.0000 H       1  UNL1        0.0660
     65 H          17.1042   -3.5104    0.0000 H       1  UNL1        0.0660
     66 H          17.7242   -4.1304    0.0000 H       1  UNL1        0.0660
     67 H          18.3442   -3.5104    0.0000 H       1  UNL1        0.0660
@<TRIPOS>BOND
     1     1    15   ar
     2     1    24   ar
     3     2    21   ar
     4     2    28   ar
     5     3    19    1
     6     3    41    1
     7     4    18    1
     8     4    54    1
     9     5    26    1
    10     5    57    1
    11     6    22    2
    12     7    34    1
    13     7    42    1
    14     8    32    1
    15     8    61    1
    16     9    31    2
    17    10    40    1
    18    10    43    1
    19    11    12    1
    20    11    14   ar
    21    11    18   ar
    22    12    17   ar
    23    12    19   ar
    24    13    14   ar
    25    13    15   ar
    26    13    22   ar
    27    14    44    1
    28    15    20   ar
    29    16    17   ar
    30    16    21    1
    31    16    23   ar
    32    17    45    1
    33    18    20   ar
    34    19    25   ar
    35    20    46    1
    36    21    29   ar
    37    22    26   ar
    38    23    25   ar
    39    23    47    1
    40    24    26   ar
    41    24    30    1
    42    25    48    1
    43    27    28   ar
    44    27    31   ar
    45    27    32   ar
    46    28    33   ar
    47    29    31   ar
    48    29    49    1
    49    30    36   ar
    50    30    37   ar
    51    32    35   ar
    52    33    34   ar
    53    33    50    1
    54    34    35   ar
    55    35    51    1
    56    36    38   ar
    57    36    52    1
    58    37    39   ar
    59    37    53    1
    60    38    40   ar
    61    38    55    1
    62    39    40   ar
    63    39    56    1
    64    41    58    1
    65    41    59    1
    66    41    60    1
    67    42    62    1
    68    42    63    1
    69    42    64    1
    70    43    65    1
    71    43    66    1
    72    43    67    1
