@<TRIPOS>MOLECULE
IMPHY006355
 34 35 0 0 0
SMALL
GASTEIGER

@<TRIPOS>ATOM
      1 O           2.8660   -0.5950    0.0000 O.3     1  UNL1       -0.4942
      2 O           6.3301   -0.5950    0.0000 O.3     1  UNL1       -0.5058
      3 O           4.5981   -3.5950    0.0000 O.3     1  UNL1       -0.5065
      4 O           3.7320    0.9050    0.0000 O.2     1  UNL1       -0.2870
      5 C           4.5981   -0.5950    0.0000 C.ar    1  UNL1        0.1047
      6 C           3.7320   -1.0950    0.0000 C.ar    1  UNL1        0.1379
      7 C           5.4641   -1.0950    0.0000 C.ar    1  UNL1        0.1346
      8 C           4.5981    0.4050    0.0000 C.2     1  UNL1        0.1931
      9 C           3.7320   -2.0950    0.0000 C.ar    1  UNL1        0.0225
     10 C           5.4641   -2.0950    0.0000 C.ar    1  UNL1        0.0223
     11 C           4.5981   -2.5950    0.0000 C.ar    1  UNL1        0.1238
     12 C           5.4641    0.9050    0.0000 C.2     1  UNL1       -0.0135
     13 C           6.3301    2.4050    0.0000 C.ar    1  UNL1       -0.0249
     14 C           5.4641    1.9050    0.0000 C.2     1  UNL1       -0.0510
     15 C           7.1962    1.9050    0.0000 C.ar    1  UNL1       -0.0546
     16 C           6.3301    3.4050    0.0000 C.ar    1  UNL1       -0.0546
     17 C           8.0622    2.4050    0.0000 C.ar    1  UNL1       -0.0612
     18 C           7.1962    3.9050    0.0000 C.ar    1  UNL1       -0.0612
     19 C           8.0622    3.4050    0.0000 C.ar    1  UNL1       -0.0617
     20 C           2.0000   -1.0950    0.0000 C.3     1  UNL1        0.0788
     21 H           3.1951   -2.4050    0.0000 H       1  UNL1        0.0691
     22 H           6.0010   -2.4050    0.0000 H       1  UNL1        0.0691
     23 H           6.0010    0.5950    0.0000 H       1  UNL1        0.0656
     24 H           4.9272    2.2150    0.0000 H       1  UNL1        0.0625
     25 H           7.1962    1.2850    0.0000 H       1  UNL1        0.0623
     26 H           5.7932    3.7150    0.0000 H       1  UNL1        0.0623
     27 H           8.5991    2.0950    0.0000 H       1  UNL1        0.0618
     28 H           7.1962    4.5250    0.0000 H       1  UNL1        0.0618
     29 H           8.5991    3.7150    0.0000 H       1  UNL1        0.0618
     30 H           6.8671   -0.9050    0.0000 H       1  UNL1        0.2922
     31 H           1.6900   -0.5581    0.0000 H       1  UNL1        0.0660
     32 H           1.4631   -1.4050    0.0000 H       1  UNL1        0.0660
     33 H           2.3100   -1.6319    0.0000 H       1  UNL1        0.0660
     34 H           5.1350   -3.9050    0.0000 H       1  UNL1        0.2921
@<TRIPOS>BOND
     1     1     6    1
     2     1    20    1
     3     2     7    1
     4     2    30    1
     5     3    11    1
     6     3    34    1
     7     4     8    2
     8     5     6   ar
     9     5     7   ar
    10     5     8    1
    11     6     9   ar
    12     7    10   ar
    13     8    12    1
    14     9    11   ar
    15     9    21    1
    16    10    11   ar
    17    10    22    1
    18    12    14    2
    19    12    23    1
    20    13    14    1
    21    13    15   ar
    22    13    16   ar
    23    14    24    1
    24    15    17   ar
    25    15    25    1
    26    16    18   ar
    27    16    26    1
    28    17    19   ar
    29    17    27    1
    30    18    19   ar
    31    18    28    1
    32    19    29    1
    33    20    31    1
    34    20    32    1
    35    20    33    1
