@<TRIPOS>MOLECULE
IMPHY015586
 24 24 0 0 0
SMALL
GASTEIGER

@<TRIPOS>ATOM
      1 C           2.8660   -1.0000    0.0000 C.3     1  UNL1       -0.0439
      2 C           2.8660    1.0000    0.0000 C.3     1  UNL1       -0.0439
      3 C           2.0000    0.5000    0.0000 C.3     1  UNL1       -0.0502
      4 C           2.0000   -0.5000    0.0000 C.3     1  UNL1       -0.0502
      5 C           3.7320    0.5000    0.0000 C.3     1  UNL1       -0.0502
      6 C           3.7320   -0.5000    0.0000 C.3     1  UNL1       -0.0502
      7 C           2.8660   -2.0000    0.0000 C.3     1  UNL1       -0.0624
      8 C           2.8660    2.0000    0.0000 C.3     1  UNL1       -0.0624
      9 H           3.4030   -1.3100    0.0000 H       1  UNL1        0.0298
     10 H           3.4030    1.3100    0.0000 H       1  UNL1        0.0298
     11 H           1.3894    0.3923    0.0000 H       1  UNL1        0.0268
     12 H           1.7880    1.0826    0.0000 H       1  UNL1        0.0268
     13 H           3.9441    1.0826    0.0000 H       1  UNL1        0.0268
     14 H           4.3426    0.3923    0.0000 H       1  UNL1        0.0268
     15 H           1.3894   -0.3923    0.0000 H       1  UNL1        0.0268
     16 H           1.7880   -1.0826    0.0000 H       1  UNL1        0.0268
     17 H           3.9441   -1.0826    0.0000 H       1  UNL1        0.0268
     18 H           4.3426   -0.3923    0.0000 H       1  UNL1        0.0268
     19 H           2.2460   -2.0000    0.0000 H       1  UNL1        0.0232
     20 H           2.8660   -2.6200    0.0000 H       1  UNL1        0.0232
     21 H           3.4860   -2.0000    0.0000 H       1  UNL1        0.0232
     22 H           3.4860    2.0000    0.0000 H       1  UNL1        0.0232
     23 H           2.8660    2.6200    0.0000 H       1  UNL1        0.0232
     24 H           2.2460    2.0000    0.0000 H       1  UNL1        0.0232
@<TRIPOS>BOND
     1     1     4    1
     2     1     6    1
     3     1     7    1
     4     1     9    1
     5     2     3    1
     6     2     5    1
     7     2     8    1
     8     2    10    1
     9     3     4    1
    10     3    11    1
    11     3    12    1
    12     4    15    1
    13     4    16    1
    14     5     6    1
    15     5    13    1
    16     5    14    1
    17     6    17    1
    18     6    18    1
    19     7    19    1
    20     7    20    1
    21     7    21    1
    22     8    22    1
    23     8    23    1
    24     8    24    1
