@<TRIPOS>MOLECULE
IMPHY017946
 16 17 0 0 0
SMALL
GASTEIGER

@<TRIPOS>ATOM
      1 O           4.9698    2.0052    0.0000 O.3     1  UNL1       -0.2257
      2 C           5.0000   -0.7059    0.0000 C.3     1  UNL1        0.0212
      3 C           5.5878    0.1031    0.0000 C.3     1  UNL1        0.0318
      4 C           5.5878   -1.5149    0.0000 C.3     1  UNL1        0.0038
      5 C           6.5388   -0.2059    0.0000 C.3     1  UNL1        0.0028
      6 C           6.5388   -1.2059    0.0000 C.3     1  UNL1        0.0004
      7 C           4.5000    0.1601    0.0000 C.3     1  UNL1        0.0088
      8 C           5.2788    1.0542    0.0000 C.3     1  UNL1        0.1270
      9 C           4.5000   -1.5719    0.0000 C.2     1  UNL1       -0.0270
     10 C           5.2788   -2.4660    0.0000 C.3     1  UNL1        0.0003
     11 C           3.5000    0.1601    0.0000 C.3     1  UNL1        0.0267
     12 C           6.2298    1.3632    0.0000 C.3     1  UNL1        0.0329
     13 C           4.3277    0.7452    0.0000 C.3     1  UNL1        0.0329
     14 C           3.5000   -1.5719    0.0000 C.2     1  UNL1       -0.0089
     15 C           3.0000   -0.7059    0.0000 C.2     1  UNL1       -0.0225
     16 C           2.0000   -0.7059    0.0000 C.2     1  UNL1       -0.0046
@<TRIPOS>BOND
     1     1     8    1
     2     2     3    1
     3     2     4    1
     4     2     7    1
     5     2     9    1
     6     3     5    1
     7     3     8    1
     8     4     6    1
     9     4    10    1
    10     5     6    1
    11     7    11    1
    12     8    12    1
    13     8    13    1
    14     9    14    2
    15    11    15    1
    16    14    15    1
    17    15    16    2
