@<TRIPOS>MOLECULE
IMPHY009913
 35 37 0 0 0
SMALL
GASTEIGER

@<TRIPOS>ATOM
      1 O           7.8167    1.8592    0.0000 O.3     1  UNL1       -0.5053
      2 O           6.0682    1.8246    0.0000 O.2     1  UNL1       -0.2864
      3 O           6.0682   -2.1754    0.0000 O.2     1  UNL1       -0.2866
      4 O           4.3198    1.8592    0.0000 O.3     1  UNL1       -0.5059
      5 O           2.5381   -1.1995    0.0000 O.3     1  UNL1       -0.5066
      6 O           9.5945    1.8488    0.0000 O.2     1  UNL1       -0.2922
      7 C           6.9343    0.3246    0.0000 C.ar    1  UNL1        0.0752
      8 C           6.9343   -0.6754    0.0000 C.ar    1  UNL1        0.0369
      9 C           5.2022    0.3246    0.0000 C.ar    1  UNL1        0.0748
     10 C           5.2022   -0.6754    0.0000 C.ar    1  UNL1        0.0400
     11 C           6.0682    0.8246    0.0000 C.2     1  UNL1        0.2015
     12 C           6.0682   -1.1754    0.0000 C.2     1  UNL1        0.1949
     13 C           7.8282    0.8593    0.0000 C.ar    1  UNL1        0.1390
     14 C           8.7343   -0.6962    0.0000 C.ar    1  UNL1       -0.0358
     15 C           8.7343    0.3454    0.0000 C.ar    1  UNL1        0.0621
     16 C           7.8282   -1.2100    0.0000 C.ar    1  UNL1       -0.0464
     17 C           4.3083    0.8593    0.0000 C.ar    1  UNL1        0.1318
     18 C           4.3083   -1.2100    0.0000 C.ar    1  UNL1       -0.0084
     19 C           9.5984   -1.1995    0.0000 C.3     1  UNL1       -0.0389
     20 C           9.5984    0.8488    0.0000 C.2     1  UNL1        0.1639
     21 C           3.4022   -0.6962    0.0000 C.ar    1  UNL1        0.1210
     22 C           3.4022    0.3454    0.0000 C.ar    1  UNL1        0.0221
     23 C          10.4663    0.3521    0.0000 C.3     1  UNL1       -0.0013
     24 H           7.8210   -1.8300    0.0000 H       1  UNL1        0.0628
     25 H           4.3154   -1.8300    0.0000 H       1  UNL1        0.0661
     26 H           9.2863   -1.7353    0.0000 H       1  UNL1        0.0278
     27 H          10.1341   -1.5116    0.0000 H       1  UNL1        0.0278
     28 H           9.9105   -0.6638    0.0000 H       1  UNL1        0.0278
     29 H           2.8665    0.6575    0.0000 H       1  UNL1        0.0691
     30 H           8.3500    2.1754    0.0000 H       1  UNL1        0.2922
     31 H          10.1584   -0.1860    0.0000 H       1  UNL1        0.0309
     32 H          11.0045    0.0442    0.0000 H       1  UNL1        0.0309
     33 H          10.7743    0.8902    0.0000 H       1  UNL1        0.0309
     34 H           3.7865    2.1754    0.0000 H       1  UNL1        0.2922
     35 H           2.0000   -0.8916    0.0000 H       1  UNL1        0.2921
@<TRIPOS>BOND
     1     1    13    1
     2     1    30    1
     3     2    11    2
     4     3    12    2
     5     4    17    1
     6     4    34    1
     7     5    21    1
     8     5    35    1
     9     6    20    2
    10     7     8   ar
    11     7    11    1
    12     7    13   ar
    13     8    12    1
    14     8    16   ar
    15     9    10   ar
    16     9    11    1
    17     9    17   ar
    18    10    12    1
    19    10    18   ar
    20    13    15   ar
    21    14    15   ar
    22    14    16   ar
    23    14    19    1
    24    15    20    1
    25    16    24    1
    26    17    22   ar
    27    18    21   ar
    28    18    25    1
    29    19    26    1
    30    19    27    1
    31    19    28    1
    32    20    23    1
    33    21    22   ar
    34    22    29    1
    35    23    31    1
    36    23    32    1
    37    23    33    1
