@<TRIPOS>MOLECULE
IMPHY006692
 75 75 0 0 0
SMALL
GASTEIGER

@<TRIPOS>ATOM
      1 O           2.5369   -4.6900    0.0000 O.3     1  UNL1       -0.5062
      2 O           6.0010   -6.6900    0.0000 O.3     1  UNL1       -0.5067
      3 C           8.5991    3.8100    0.0000 C.3     1  UNL1       -0.0439
      4 C           8.5991    2.8100    0.0000 C.3     1  UNL1       -0.0505
      5 C           6.8671    0.8100    0.0000 C.3     1  UNL1       -0.0439
      6 C           7.7331    2.3100    0.0000 C.3     1  UNL1       -0.0526
      7 C           7.7331    1.3100    0.0000 C.3     1  UNL1       -0.0505
      8 C           9.4651    4.3100    0.0000 C.3     1  UNL1       -0.0505
      9 C           6.8671   -0.1900    0.0000 C.3     1  UNL1       -0.0502
     10 C           9.4651    5.3100    0.0000 C.3     1  UNL1       -0.0526
     11 C          10.3312    5.8100    0.0000 C.3     1  UNL1       -0.0507
     12 C           7.7331    4.3100    0.0000 C.3     1  UNL1       -0.0624
     13 C           6.0010   -0.6900    0.0000 C.3     1  UNL1       -0.0491
     14 C           6.0010    1.3100    0.0000 C.3     1  UNL1       -0.0624
     15 C          10.3312    6.8100    0.0000 C.3     1  UNL1       -0.0467
     16 C           6.0010   -1.6900    0.0000 C.3     1  UNL1       -0.0320
     17 C          11.1972    7.3100    0.0000 C.3     1  UNL1       -0.0627
     18 C           9.4651    7.3100    0.0000 C.3     1  UNL1       -0.0627
     19 C           5.1350   -2.1900    0.0000 C.2     1  UNL1       -0.0762
     20 C           5.1350   -3.1900    0.0000 C.2     1  UNL1       -0.0806
     21 C           4.2690   -1.6900    0.0000 C.3     1  UNL1       -0.0438
     22 C           4.2690   -3.6900    0.0000 C.3     1  UNL1       -0.0057
     23 C           4.2690   -4.6900    0.0000 C.ar    1  UNL1        0.0015
     24 C           3.4030   -5.1900    0.0000 C.ar    1  UNL1        0.1234
     25 C           5.1350   -5.1900    0.0000 C.ar    1  UNL1       -0.0132
     26 C           3.4030   -6.1900    0.0000 C.ar    1  UNL1       -0.0053
     27 C           5.1350   -6.1900    0.0000 C.ar    1  UNL1        0.1176
     28 C           4.2690   -6.6900    0.0000 C.ar    1  UNL1       -0.0138
     29 C           2.5369   -6.6900    0.0000 C.3     1  UNL1       -0.0361
     30 H           8.5991    4.4300    0.0000 H       1  UNL1        0.0298
     31 H           8.8112    2.2274    0.0000 H       1  UNL1        0.0268
     32 H           9.2097    2.9177    0.0000 H       1  UNL1        0.0268
     33 H           6.3301    0.5000    0.0000 H       1  UNL1        0.0298
     34 H           7.5210    2.8926    0.0000 H       1  UNL1        0.0265
     35 H           7.1225    2.2023    0.0000 H       1  UNL1        0.0265
     36 H           7.9451    0.7274    0.0000 H       1  UNL1        0.0268
     37 H           8.3437    1.4177    0.0000 H       1  UNL1        0.0268
     38 H           9.6772    3.7274    0.0000 H       1  UNL1        0.0268
     39 H          10.0757    4.4177    0.0000 H       1  UNL1        0.0268
     40 H           7.0791   -0.7726    0.0000 H       1  UNL1        0.0268
     41 H           7.4776   -0.0823    0.0000 H       1  UNL1        0.0268
     42 H           9.2531    5.8926    0.0000 H       1  UNL1        0.0265
     43 H           8.8546    5.2023    0.0000 H       1  UNL1        0.0265
     44 H          10.5432    5.2274    0.0000 H       1  UNL1        0.0268
     45 H          10.9417    5.9177    0.0000 H       1  UNL1        0.0268
     46 H           8.0431    4.8469    0.0000 H       1  UNL1        0.0232
     47 H           7.1962    4.6200    0.0000 H       1  UNL1        0.0232
     48 H           7.4231    3.7731    0.0000 H       1  UNL1        0.0232
     49 H           5.7890   -0.1074    0.0000 H       1  UNL1        0.0268
     50 H           5.3905   -0.7977    0.0000 H       1  UNL1        0.0268
     51 H           6.3110    1.8469    0.0000 H       1  UNL1        0.0232
     52 H           5.4641    1.6200    0.0000 H       1  UNL1        0.0232
     53 H           5.6910    0.7731    0.0000 H       1  UNL1        0.0232
     54 H          10.8681    6.5000    0.0000 H       1  UNL1        0.0295
     55 H           6.2131   -2.2726    0.0000 H       1  UNL1        0.0310
     56 H           6.6116   -1.5823    0.0000 H       1  UNL1        0.0310
     57 H          11.5072    6.7731    0.0000 H       1  UNL1        0.0232
     58 H          11.7341    7.6200    0.0000 H       1  UNL1        0.0232
     59 H          10.8872    7.8469    0.0000 H       1  UNL1        0.0232
     60 H           9.7751    7.8469    0.0000 H       1  UNL1        0.0232
     61 H           8.9282    7.6200    0.0000 H       1  UNL1        0.0232
     62 H           9.1551    6.7731    0.0000 H       1  UNL1        0.0232
     63 H           5.6720   -3.5000    0.0000 H       1  UNL1        0.0575
     64 H           4.5790   -1.1531    0.0000 H       1  UNL1        0.0274
     65 H           3.7320   -1.3800    0.0000 H       1  UNL1        0.0274
     66 H           3.9590   -2.2269    0.0000 H       1  UNL1        0.0274
     67 H           4.0569   -3.1074    0.0000 H       1  UNL1        0.0357
     68 H           3.6584   -3.7977    0.0000 H       1  UNL1        0.0357
     69 H           5.6720   -4.8800    0.0000 H       1  UNL1        0.0658
     70 H           4.2690   -7.3100    0.0000 H       1  UNL1        0.0658
     71 H           2.2269   -6.1531    0.0000 H       1  UNL1        0.0279
     72 H           2.0000   -7.0000    0.0000 H       1  UNL1        0.0279
     73 H           2.8469   -7.2269    0.0000 H       1  UNL1        0.0279
     74 H           2.0000   -5.0000    0.0000 H       1  UNL1        0.2922
     75 H           6.0010   -7.3100    0.0000 H       1  UNL1        0.2921
@<TRIPOS>BOND
     1     1    24    1
     2     1    74    1
     3     2    27    1
     4     2    75    1
     5     3     4    1
     6     3     8    1
     7     3    12    1
     8     3    30    1
     9     4     6    1
    10     4    31    1
    11     4    32    1
    12     5     7    1
    13     5     9    1
    14     5    14    1
    15     5    33    1
    16     6     7    1
    17     6    34    1
    18     6    35    1
    19     7    36    1
    20     7    37    1
    21     8    10    1
    22     8    38    1
    23     8    39    1
    24     9    13    1
    25     9    40    1
    26     9    41    1
    27    10    11    1
    28    10    42    1
    29    10    43    1
    30    11    15    1
    31    11    44    1
    32    11    45    1
    33    12    46    1
    34    12    47    1
    35    12    48    1
    36    13    16    1
    37    13    49    1
    38    13    50    1
    39    14    51    1
    40    14    52    1
    41    14    53    1
    42    15    17    1
    43    15    18    1
    44    15    54    1
    45    16    19    1
    46    16    55    1
    47    16    56    1
    48    17    57    1
    49    17    58    1
    50    17    59    1
    51    18    60    1
    52    18    61    1
    53    18    62    1
    54    19    20    2
    55    19    21    1
    56    20    22    1
    57    20    63    1
    58    21    64    1
    59    21    65    1
    60    21    66    1
    61    22    23    1
    62    22    67    1
    63    22    68    1
    64    23    24   ar
    65    23    25   ar
    66    24    26   ar
    67    25    27   ar
    68    25    69    1
    69    26    28   ar
    70    26    29    1
    71    27    28   ar
    72    28    70    1
    73    29    71    1
    74    29    72    1
    75    29    73    1
