@<TRIPOS>MOLECULE
IMPHY003226
 96 104 0 0 0
SMALL
GASTEIGER

@<TRIPOS>ATOM
      1 O           9.7248   -4.3621    0.0000 O.2     1  UNL1       -0.4956
      2 O           7.6856    1.4537    0.0000 O.3     1  UNL1       -0.4677
      3 O           7.3255   -0.2405    0.0000 O.2     1  UNL1       -0.2505
      4 O           7.5596   -6.6246    0.0000 O.3     1  UNL1       -0.4646
      5 O           6.2860   -5.4508    0.0000 O.2     1  UNL1       -0.2452
      6 N           5.1126    3.8448    0.0000 N.3     1  UNL1       -0.2898
      7 N           6.9654   -1.9347    0.0000 N.ar    1  UNL1       -0.1988
      8 N           7.7560    4.3725    0.0000 N.ar    1  UNL1       -0.3564
      9 N           4.5124   -3.0521    0.0000 N.ar    1  UNL1       -0.3493
     10 C           5.7293    1.8696    0.0000 C.3     1  UNL1       -0.0037
     11 C           6.0900    3.6332    0.0000 C.3     1  UNL1        0.0518
     12 C           6.4233    2.6463    0.0000 C.3     1  UNL1       -0.0245
     13 C           8.3170   -3.1236    0.0000 C.3     1  UNL1        0.0627
     14 C           6.0383    0.9185    0.0000 C.3     1  UNL1        0.0671
     15 C           7.6200   -3.8977    0.0000 C.3     1  UNL1        0.0154
     16 C           4.7113    2.0900    0.0000 C.2     1  UNL1       -0.0558
     17 C           4.4009    3.0843    0.0000 C.3     1  UNL1        0.0209
     18 C           6.7620    4.3737    0.0000 C.ar    1  UNL1        0.0376
     19 C           7.9875   -2.1355    0.0000 C.3     1  UNL1        0.1575
     20 C           6.6028   -3.6733    0.0000 C.3     1  UNL1        0.0423
     21 C           4.8073    4.7971    0.0000 C.3     1  UNL1        0.0039
     22 C           5.3692    0.1753    0.0000 C.3     1  UNL1       -0.0080
     23 C           6.2962   -2.6778    0.0000 C.ar    1  UNL1        0.2085
     24 C           9.3816   -3.3328    0.0000 C.3     1  UNL1        0.1057
     25 C           6.4566    5.3260    0.0000 C.ar    1  UNL1       -0.0164
     26 C           5.4793    5.5376    0.0000 C.3     1  UNL1       -0.0125
     27 C           5.6782   -0.7757    0.0000 C.ar    1  UNL1        0.0268
     28 C           5.3181   -2.4699    0.0000 C.ar    1  UNL1        0.1156
     29 C           5.0091   -1.5189    0.0000 C.ar    1  UNL1        0.0223
     30 C           6.6564   -0.9836    0.0000 C.ar    1  UNL1        0.1754
     31 C           7.9393   -4.9347    0.0000 C.2     1  UNL1        0.0748
     32 C           7.2646    5.9051    0.0000 C.ar    1  UNL1        0.0032
     33 C           7.0165    0.7106    0.0000 C.2     1  UNL1        0.3108
     34 C           4.0364    1.3521    0.0000 C.2     1  UNL1       -0.0864
     35 C           8.0661    5.3170    0.0000 C.ar    1  UNL1        0.0470
     36 C           4.0150   -1.5214    0.0000 C.ar    1  UNL1        0.0081
     37 C          10.0421   -2.5820    0.0000 C.3     1  UNL1       -0.0273
     38 C           8.9988   -5.1684    0.0000 C.2     1  UNL1        0.0951
     39 C           3.7086   -2.4671    0.0000 C.ar    1  UNL1        0.0476
     40 C           7.2616   -5.6700    0.0000 C.2     1  UNL1        0.3381
     41 C           7.3618    6.9360    0.0000 C.ar    1  UNL1       -0.0523
     42 C           3.0599    1.5675    0.0000 C.3     1  UNL1       -0.0465
     43 C           9.0203    5.7190    0.0000 C.ar    1  UNL1       -0.0378
     44 C           3.3334   -0.7419    0.0000 C.ar    1  UNL1       -0.0520
     45 C           2.6994   -2.6989    0.0000 C.ar    1  UNL1       -0.0378
     46 C           8.3065    7.3600    0.0000 C.ar    1  UNL1       -0.0611
     47 C           9.1413    6.7474    0.0000 C.ar    1  UNL1       -0.0598
     48 C           2.3191   -0.9503    0.0000 C.ar    1  UNL1       -0.0611
     49 C           2.0000   -1.9354    0.0000 C.ar    1  UNL1       -0.0598
     50 C           8.6637    1.2458    0.0000 C.3     1  UNL1        0.0817
     51 C           6.8820   -7.3600    0.0000 C.3     1  UNL1        0.0820
     52 H           6.3360    1.7418    0.0000 H       1  UNL1        0.0355
     53 H           6.6969    3.5066    0.0000 H       1  UNL1        0.0527
     54 H           6.8081    2.1602    0.0000 H       1  UNL1        0.0290
     55 H           6.9681    2.9423    0.0000 H       1  UNL1        0.0290
     56 H           8.7265   -2.6581    0.0000 H       1  UNL1        0.0405
     57 H           5.4319    1.0474    0.0000 H       1  UNL1        0.0422
     58 H           7.1998   -4.3537    0.0000 H       1  UNL1        0.0363
     59 H           4.0274    3.5792    0.0000 H       1  UNL1        0.0473
     60 H           3.8494    2.8010    0.0000 H       1  UNL1        0.0473
     61 H           8.6005   -2.0429    0.0000 H       1  UNL1        0.1035
     62 H           8.0011   -1.5157    0.0000 H       1  UNL1        0.1035
     63 H           5.9878   -3.7517    0.0000 H       1  UNL1        0.0379
     64 H           6.5748   -4.2927    0.0000 H       1  UNL1        0.0379
     65 H           4.4275    5.2871    0.0000 H       1  UNL1        0.0430
     66 H           4.2588    4.5081    0.0000 H       1  UNL1        0.0430
     67 H           4.9875    0.6639    0.0000 H       1  UNL1        0.0323
     68 H           4.8218   -0.1157    0.0000 H       1  UNL1        0.0323
     69 H           9.9893   -3.4559    0.0000 H       1  UNL1        0.0735
     70 H           5.7138    6.1116    0.0000 H       1  UNL1        0.0326
     71 H           4.9548    5.8682    0.0000 H       1  UNL1        0.0326
     72 H           7.0712   -0.5229    0.0000 H       1  UNL1        0.1379
     73 H           8.1194    3.8701    0.0000 H       1  UNL1        0.1656
     74 H           4.2235    0.7610    0.0000 H       1  UNL1        0.0569
     75 H          10.5076   -2.9915    0.0000 H       1  UNL1        0.0265
     76 H          10.4516   -2.1165    0.0000 H       1  UNL1        0.0265
     77 H           9.5766   -2.1725    0.0000 H       1  UNL1        0.0265
     78 H           4.5113   -3.6721    0.0000 H       1  UNL1        0.1661
     79 H           9.1881   -5.7588    0.0000 H       1  UNL1        0.1028
     80 H           6.8578    7.2970    0.0000 H       1  UNL1        0.0624
     81 H           3.1935    2.1730    0.0000 H       1  UNL1        0.0272
     82 H           2.4545    1.7011    0.0000 H       1  UNL1        0.0272
     83 H           2.9263    0.9621    0.0000 H       1  UNL1        0.0272
     84 H           9.5159    5.3465    0.0000 H       1  UNL1        0.0638
     85 H           3.5313   -0.1544    0.0000 H       1  UNL1        0.0624
     86 H           2.5152   -3.2909    0.0000 H       1  UNL1        0.0638
     87 H           8.3718    7.9765    0.0000 H       1  UNL1        0.0618
     88 H           9.7099    6.9947    0.0000 H       1  UNL1        0.0618
     89 H           1.9056   -0.4883    0.0000 H       1  UNL1        0.0618
     90 H           1.3942   -2.0671    0.0000 H       1  UNL1        0.0618
     91 H           8.5348    0.6394    0.0000 H       1  UNL1        0.0661
     92 H           9.2702    1.1169    0.0000 H       1  UNL1        0.0661
     93 H           8.7926    1.8523    0.0000 H       1  UNL1        0.0661
     94 H           6.4260   -6.9398    0.0000 H       1  UNL1        0.0661
     95 H           6.4618   -7.8159    0.0000 H       1  UNL1        0.0661
     96 H           7.3379   -7.7801    0.0000 H       1  UNL1        0.0661
@<TRIPOS>UNITY_ATOM_ATTR
7 1
charge 1
@<TRIPOS>BOND
     1     1    24    1
     2     1    38    1
     3     2    33    1
     4     2    50    1
     5     3    33    2
     6     4    40    1
     7     4    51    1
     8     5    40    2
     9     6    11    1
    10     6    17    1
    11     6    21    1
    12     7    19    1
    13     7    23   ar
    14     7    30   ar
    15     8    18   ar
    16     8    35   ar
    17     8    73    1
    18     9    28   ar
    19     9    39   ar
    20     9    78    1
    21    10    12    1
    22    10    14    1
    23    10    16    1
    24    10    52    1
    25    11    12    1
    26    11    18    1
    27    11    53    1
    28    12    54    1
    29    12    55    1
    30    13    15    1
    31    13    19    1
    32    13    24    1
    33    13    56    1
    34    14    22    1
    35    14    33    1
    36    14    57    1
    37    15    20    1
    38    15    31    1
    39    15    58    1
    40    16    17    1
    41    16    34    2
    42    17    59    1
    43    17    60    1
    44    18    25   ar
    45    19    61    1
    46    19    62    1
    47    20    23    1
    48    20    63    1
    49    20    64    1
    50    21    26    1
    51    21    65    1
    52    21    66    1
    53    22    27    1
    54    22    67    1
    55    22    68    1
    56    23    28   ar
    57    24    37    1
    58    24    69    1
    59    25    26    1
    60    25    32   ar
    61    26    70    1
    62    26    71    1
    63    27    29   ar
    64    27    30   ar
    65    28    29   ar
    66    29    36   ar
    67    30    72    1
    68    31    38    2
    69    31    40    1
    70    32    35   ar
    71    32    41   ar
    72    34    42    1
    73    34    74    1
    74    35    43   ar
    75    36    39   ar
    76    36    44   ar
    77    37    75    1
    78    37    76    1
    79    37    77    1
    80    38    79    1
    81    39    45   ar
    82    41    46   ar
    83    41    80    1
    84    42    81    1
    85    42    82    1
    86    42    83    1
    87    43    47   ar
    88    43    84    1
    89    44    48   ar
    90    44    85    1
    91    45    49   ar
    92    45    86    1
    93    46    47   ar
    94    46    87    1
    95    47    88    1
    96    48    49   ar
    97    48    89    1
    98    49    90    1
    99    50    91    1
   100    50    92    1
   101    50    93    1
   102    51    94    1
   103    51    95    1
   104    51    96    1
