@<TRIPOS>MOLECULE
IMPHY014913
 85 91 0 0 0
SMALL
GASTEIGER

@<TRIPOS>ATOM
      1 O           7.2066    1.2758    0.0000 O.3     1  UNL1       -0.4482
      2 O           6.6743    3.7214    0.0000 O.3     1  UNL1       -0.4914
      3 O           8.9657    4.2918    0.0000 O.3     1  UNL1       -0.4913
      4 O           7.7556    3.7303    0.0000 O.3     1  UNL1       -0.5009
      5 O           5.9340   -2.9296    0.0000 O.3     1  UNL1       -0.4523
      6 O           7.5064   -4.1713    0.0000 O.3     1  UNL1       -0.4914
      7 N           9.8338   -0.2166    0.0000 N.3     1  UNL1       -0.2977
      8 N           2.8660    1.7770    0.0000 N.3     1  UNL1       -0.2978
      9 C           8.9657    0.2846    0.0000 C.3     1  UNL1        0.0432
     10 C           3.7341    1.2758    0.0000 C.3     1  UNL1        0.0397
     11 C           8.9657    1.2870    0.0000 C.ar    1  UNL1        0.0193
     12 C          10.7020    0.2846    0.0000 C.3     1  UNL1        0.0032
     13 C           4.6022    1.7770    0.0000 C.ar    1  UNL1       -0.0231
     14 C           9.8338    1.7882    0.0000 C.ar    1  UNL1       -0.0343
     15 C          10.7020    1.2870    0.0000 C.3     1  UNL1       -0.0143
     16 C           8.0976   -0.2166    0.0000 C.3     1  UNL1       -0.0076
     17 C           2.8660    2.7795    0.0000 C.3     1  UNL1        0.0032
     18 C           4.6022    2.7795    0.0000 C.ar    1  UNL1       -0.0378
     19 C           3.7341    3.2807    0.0000 C.3     1  UNL1       -0.0144
     20 C           3.7341    0.2734    0.0000 C.3     1  UNL1       -0.0079
     21 C           8.0976    1.7882    0.0000 C.ar    1  UNL1        0.1784
     22 C           5.4704    1.2758    0.0000 C.ar    1  UNL1       -0.0107
     23 C           9.8338   -1.2166    0.0000 C.3     1  UNL1       -0.0122
     24 C           6.3385    1.7770    0.0000 C.ar    1  UNL1        0.1703
     25 C           9.8338    2.7906    0.0000 C.ar    1  UNL1       -0.0125
     26 C           5.4704    3.2807    0.0000 C.ar    1  UNL1       -0.0128
     27 C           7.9431   -1.1983    0.0000 C.ar    1  UNL1       -0.0419
     28 C           2.0000    1.2770    0.0000 C.3     1  UNL1       -0.0122
     29 C           8.0976    2.7906    0.0000 C.ar    1  UNL1        0.2020
     30 C           4.2424   -0.5074    0.0000 C.ar    1  UNL1       -0.0453
     31 C           6.3385    2.7795    0.0000 C.ar    1  UNL1        0.1624
     32 C           8.9657    3.2918    0.0000 C.ar    1  UNL1        0.1653
     33 C           7.0114   -1.5681    0.0000 C.ar    1  UNL1       -0.0124
     34 C           8.7292   -1.8204    0.0000 C.ar    1  UNL1       -0.0548
     35 C           5.2438   -0.4635    0.0000 C.ar    1  UNL1       -0.0550
     36 C           3.7797   -1.3966    0.0000 C.ar    1  UNL1       -0.0550
     37 C           6.8657   -2.5598    0.0000 C.ar    1  UNL1        0.1701
     38 C           8.5835   -2.8121    0.0000 C.ar    1  UNL1       -0.0160
     39 C           5.3198   -2.1981    0.0000 C.ar    1  UNL1        0.1286
     40 C           5.7826   -1.3088    0.0000 C.ar    1  UNL1       -0.0191
     41 C           4.3184   -2.2419    0.0000 C.ar    1  UNL1       -0.0191
     42 C           7.6518   -3.1819    0.0000 C.ar    1  UNL1        0.1621
     43 C           6.0264    4.4832    0.0000 C.3     1  UNL1        0.0790
     44 C           9.8318    4.7918    0.0000 C.3     1  UNL1        0.0790
     45 C           8.2906   -4.7918    0.0000 C.3     1  UNL1        0.0790
     46 H           8.9657   -0.5654    0.0000 H       1  UNL1        0.0516
     47 H           2.9980    0.8508    0.0000 H       1  UNL1        0.0515
     48 H          10.9140   -0.2980    0.0000 H       1  UNL1        0.0430
     49 H          11.3125    0.3922    0.0000 H       1  UNL1        0.0430
     50 H          11.3125    1.1793    0.0000 H       1  UNL1        0.0326
     51 H          10.9140    1.8696    0.0000 H       1  UNL1        0.0326
     52 H           7.9162    0.3762    0.0000 H       1  UNL1        0.0332
     53 H           7.4792   -0.2603    0.0000 H       1  UNL1        0.0332
     54 H           2.6540    3.3621    0.0000 H       1  UNL1        0.0430
     55 H           2.2554    2.6718    0.0000 H       1  UNL1        0.0430
     56 H           4.1327    3.7556    0.0000 H       1  UNL1        0.0326
     57 H           3.3356    3.7556    0.0000 H       1  UNL1        0.0326
     58 H           3.1478    0.4751    0.0000 H       1  UNL1        0.0332
     59 H           4.3285    0.4498    0.0000 H       1  UNL1        0.0332
     60 H           5.4704    0.6558    0.0000 H       1  UNL1        0.0659
     61 H           9.2139   -1.2166    0.0000 H       1  UNL1        0.0391
     62 H           9.8338   -1.8366    0.0000 H       1  UNL1        0.0391
     63 H          10.4538   -1.2166    0.0000 H       1  UNL1        0.0391
     64 H          10.3708    3.1006    0.0000 H       1  UNL1        0.0658
     65 H           5.4704    3.9007    0.0000 H       1  UNL1        0.0658
     66 H           1.6900    1.8140    0.0000 H       1  UNL1        0.0391
     67 H           1.4631    0.9671    0.0000 H       1  UNL1        0.0391
     68 H           2.3100    0.7401    0.0000 H       1  UNL1        0.0391
     69 H           6.5252   -1.1833    0.0000 H       1  UNL1        0.0658
     70 H           9.3054   -1.5917    0.0000 H       1  UNL1        0.0621
     71 H           5.5301    0.0865    0.0000 H       1  UNL1        0.0621
     72 H           3.1602   -1.4237    0.0000 H       1  UNL1        0.0621
     73 H           9.0697   -3.1969    0.0000 H       1  UNL1        0.0655
     74 H           6.4020   -1.2817    0.0000 H       1  UNL1        0.0654
     75 H           4.0321   -2.7919    0.0000 H       1  UNL1        0.0654
     76 H           8.1541    4.2052    0.0000 H       1  UNL1        0.2924
     77 H           6.4987    4.8848    0.0000 H       1  UNL1        0.0660
     78 H           5.6247    4.9555    0.0000 H       1  UNL1        0.0660
     79 H           5.5541    4.0815    0.0000 H       1  UNL1        0.0660
     80 H          10.1418    4.2549    0.0000 H       1  UNL1        0.0660
     81 H          10.3687    5.1018    0.0000 H       1  UNL1        0.0660
     82 H           9.5218    5.3287    0.0000 H       1  UNL1        0.0660
     83 H           7.9059   -5.2780    0.0000 H       1  UNL1        0.0660
     84 H           8.7768   -5.1765    0.0000 H       1  UNL1        0.0660
     85 H           8.6754   -4.3056    0.0000 H       1  UNL1        0.0660
@<TRIPOS>BOND
     1     1    21    1
     2     1    24    1
     3     2    31    1
     4     2    43    1
     5     3    32    1
     6     3    44    1
     7     4    29    1
     8     4    76    1
     9     5    37    1
    10     5    39    1
    11     6    42    1
    12     6    45    1
    13     7     9    1
    14     7    12    1
    15     7    23    1
    16     8    10    1
    17     8    17    1
    18     8    28    1
    19     9    11    1
    20     9    16    1
    21     9    46    1
    22    10    13    1
    23    10    20    1
    24    10    47    1
    25    11    14   ar
    26    11    21   ar
    27    12    15    1
    28    12    48    1
    29    12    49    1
    30    13    18   ar
    31    13    22   ar
    32    14    15    1
    33    14    25   ar
    34    15    50    1
    35    15    51    1
    36    16    27    1
    37    16    52    1
    38    16    53    1
    39    17    19    1
    40    17    54    1
    41    17    55    1
    42    18    19    1
    43    18    26   ar
    44    19    56    1
    45    19    57    1
    46    20    30    1
    47    20    58    1
    48    20    59    1
    49    21    29   ar
    50    22    24   ar
    51    22    60    1
    52    23    61    1
    53    23    62    1
    54    23    63    1
    55    24    31   ar
    56    25    32   ar
    57    25    64    1
    58    26    31   ar
    59    26    65    1
    60    27    33   ar
    61    27    34   ar
    62    28    66    1
    63    28    67    1
    64    28    68    1
    65    29    32   ar
    66    30    35   ar
    67    30    36   ar
    68    33    37   ar
    69    33    69    1
    70    34    38   ar
    71    34    70    1
    72    35    40   ar
    73    35    71    1
    74    36    41   ar
    75    36    72    1
    76    37    42   ar
    77    38    42   ar
    78    38    73    1
    79    39    40   ar
    80    39    41   ar
    81    40    74    1
    82    41    75    1
    83    43    77    1
    84    43    78    1
    85    43    79    1
    86    44    80    1
    87    44    81    1
    88    44    82    1
    89    45    83    1
    90    45    84    1
    91    45    85    1
