@<TRIPOS>MOLECULE
IMPHY005547
 72 76 0 0 0
SMALL
GASTEIGER

@<TRIPOS>ATOM
      1 O           8.1101   -2.7787    0.0000 O.3     1  UNL1       -0.3366
      2 O           7.2441   -0.2787    0.0000 O.3     1  UNL1       -0.3313
      3 O           6.3781   -2.7787    0.0000 O.3     1  UNL1       -0.3431
      4 O           9.8422   -1.7787    0.0000 O.3     1  UNL1       -0.3863
      5 O           6.3781   -1.7787    0.0000 O.3     1  UNL1       -0.4606
      6 O           9.8422    0.2213    0.0000 O.3     1  UNL1       -0.3865
      7 O           8.1101   -4.7787    0.0000 O.3     1  UNL1       -0.3841
      8 O           6.3781   -5.7787    0.0000 O.3     1  UNL1       -0.3864
      9 O           4.6460   -4.7787    0.0000 O.3     1  UNL1       -0.3866
     10 O           8.9761    1.7213    0.0000 O.3     1  UNL1       -0.3924
     11 O           4.6038    1.2733    0.0000 O.2     1  UNL1       -0.4544
     12 O           2.8383   -1.7514    0.0000 O.3     1  UNL1       -0.5058
     13 O           2.0000   -0.2167    0.0000 O.2     1  UNL1       -0.2869
     14 O           5.4834    4.7699    0.0000 O.3     1  UNL1       -0.5033
     15 O           3.7552    5.7766    0.0000 O.3     1  UNL1       -0.5033
     16 C           8.1101   -1.7787    0.0000 C.3     1  UNL1        0.1519
     17 C           8.9761   -1.2787    0.0000 C.3     1  UNL1        0.1155
     18 C           8.9761   -0.2787    0.0000 C.3     1  UNL1        0.1120
     19 C           7.2441   -3.2787    0.0000 C.3     1  UNL1        0.1885
     20 C           7.2441   -4.2787    0.0000 C.3     1  UNL1        0.1341
     21 C           7.2441   -1.2787    0.0000 C.3     1  UNL1        0.2312
     22 C           8.1101    0.2213    0.0000 C.3     1  UNL1        0.1140
     23 C           6.3781   -4.7787    0.0000 C.3     1  UNL1        0.1140
     24 C           5.5120   -4.2787    0.0000 C.3     1  UNL1        0.1095
     25 C           5.5120   -3.2787    0.0000 C.3     1  UNL1        0.0873
     26 C           8.1101    1.2213    0.0000 C.3     1  UNL1        0.0731
     27 C           4.6460   -2.7787    0.0000 C.3     1  UNL1       -0.0361
     28 C           5.5120   -1.2787    0.0000 C.ar    1  UNL1        0.1310
     29 C           5.5080   -0.2370    0.0000 C.ar    1  UNL1        0.0235
     30 C           4.6080   -1.7960    0.0000 C.ar    1  UNL1        0.0226
     31 C           4.6000    0.2733    0.0000 C.ar    1  UNL1        0.1462
     32 C           3.7120   -1.2648    0.0000 C.ar    1  UNL1        0.1347
     33 C           3.7320   -0.2234    0.0000 C.ar    1  UNL1        0.1055
     34 C           2.8680    0.2800    0.0000 C.ar    1  UNL1        0.1966
     35 C           3.7398    1.7766    0.0000 C.ar    1  UNL1        0.1393
     36 C           2.8718    1.2800    0.0000 C.ar    1  UNL1        0.0288
     37 C           3.7436    2.7766    0.0000 C.ar    1  UNL1        0.0211
     38 C           4.6116    3.2733    0.0000 C.ar    1  UNL1       -0.0059
     39 C           2.8795    3.2800    0.0000 C.ar    1  UNL1       -0.0474
     40 C           4.6154    4.2733    0.0000 C.ar    1  UNL1        0.1589
     41 C           2.8834    4.2800    0.0000 C.ar    1  UNL1       -0.0159
     42 C           3.7513    4.7766    0.0000 C.ar    1  UNL1        0.1583
     43 H           7.5732   -2.0887    0.0000 H       1  UNL1        0.0687
     44 H           8.9761   -1.8987    0.0000 H       1  UNL1        0.0648
     45 H           9.5131   -0.5887    0.0000 H       1  UNL1        0.0647
     46 H           7.2441   -2.6587    0.0000 H       1  UNL1        0.0938
     47 H           7.2441   -4.8987    0.0000 H       1  UNL1        0.0671
     48 H           6.7072   -0.9687    0.0000 H       1  UNL1        0.1084
     49 H           7.5732    0.5313    0.0000 H       1  UNL1        0.0647
     50 H           5.8411   -5.0887    0.0000 H       1  UNL1        0.0648
     51 H           4.9751   -3.9687    0.0000 H       1  UNL1        0.0646
     52 H           5.5120   -2.6587    0.0000 H       1  UNL1        0.0621
     53 H           7.8981    1.8039    0.0000 H       1  UNL1        0.0584
     54 H           7.4995    1.1137    0.0000 H       1  UNL1        0.0584
     55 H           4.9560   -2.2417    0.0000 H       1  UNL1        0.0255
     56 H           4.1091   -2.4687    0.0000 H       1  UNL1        0.0255
     57 H           4.3360   -3.3156    0.0000 H       1  UNL1        0.0255
     58 H          10.3791   -1.4687    0.0000 H       1  UNL1        0.2100
     59 H          10.3791   -0.0887    0.0000 H       1  UNL1        0.2100
     60 H           8.1101   -5.3987    0.0000 H       1  UNL1        0.2101
     61 H           5.8411   -6.0887    0.0000 H       1  UNL1        0.2100
     62 H           4.1091   -4.4687    0.0000 H       1  UNL1        0.2100
     63 H           8.9761    2.3413    0.0000 H       1  UNL1        0.2095
     64 H           6.0426    0.0771    0.0000 H       1  UNL1        0.0691
     65 H           4.6032   -2.4160    0.0000 H       1  UNL1        0.0691
     66 H           2.3361    1.5920    0.0000 H       1  UNL1        0.0693
     67 H           2.8288   -2.3713    0.0000 H       1  UNL1        0.2922
     68 H           5.1473    2.9612    0.0000 H       1  UNL1        0.0662
     69 H           2.3414    2.9720    0.0000 H       1  UNL1        0.0626
     70 H           2.3476    4.5920    0.0000 H       1  UNL1        0.0655
     71 H           5.4857    5.3899    0.0000 H       1  UNL1        0.2923
     72 H           3.2194    6.0887    0.0000 H       1  UNL1        0.2923
@<TRIPOS>BOND
     1    16     1    1
     2    19     1    1
     3     2    21    1
     4     2    22    1
     5     3    19    1
     6     3    25    1
     7    17     4    1
     8     4    58    1
     9    21     5    1
    10     5    28    1
    11    18     6    1
    12     6    59    1
    13    20     7    1
    14     7    60    1
    15    23     8    1
    16     8    61    1
    17    24     9    1
    18     9    62    1
    19    10    26    1
    20    10    63    1
    21    11    31   ar
    22    11    35   ar
    23    12    32    1
    24    12    67    1
    25    13    34    2
    26    14    40    1
    27    14    71    1
    28    15    42    1
    29    15    72    1
    30    16    17    1
    31    16    21    1
    32    16    43    1
    33    17    18    1
    34    17    44    1
    35    18    22    1
    36    18    45    1
    37    19    20    1
    38    19    46    1
    39    20    23    1
    40    20    47    1
    41    21    48    1
    42    22    26    1
    43    22    49    1
    44    23    24    1
    45    23    50    1
    46    24    25    1
    47    24    51    1
    48    25    27    1
    49    25    52    1
    50    26    53    1
    51    26    54    1
    52    27    55    1
    53    27    56    1
    54    27    57    1
    55    28    29   ar
    56    28    30   ar
    57    29    31   ar
    58    29    64    1
    59    30    32   ar
    60    30    65    1
    61    31    33   ar
    62    32    33   ar
    63    33    34   ar
    64    34    36   ar
    65    35    36   ar
    66    35    37    1
    67    36    66    1
    68    37    38   ar
    69    37    39   ar
    70    38    40   ar
    71    38    68    1
    72    39    41   ar
    73    39    69    1
    74    40    42   ar
    75    41    42   ar
    76    41    70    1
