@<TRIPOS>MOLECULE
IMPHY003200
 23 24 0 0 0
SMALL
GASTEIGER

@<TRIPOS>ATOM
      1 O           6.2619   -0.8229    0.0000 O.2     1  UNL1       -0.2748
      2 O           6.2781    2.0891    0.0000 O.3     1  UNL1       -0.4806
      3 O           6.6353    0.3943    0.0000 O.2     1  UNL1       -0.2510
      4 N           4.6783   -1.6276    0.0000 N.am    1  UNL1       -0.2847
      5 C           4.6783   -0.0182    0.0000 C.3     1  UNL1        0.0726
      6 C           3.7320   -0.3229    0.0000 C.ar    1  UNL1       -0.0138
      7 C           3.7320   -1.3229    0.0000 C.ar    1  UNL1        0.0373
      8 C           4.9889    0.9324    0.0000 C.3     1  UNL1        0.0599
      9 C           5.2619   -0.8229    0.0000 C.2     1  UNL1        0.2252
     10 C           2.8660    0.1771    0.0000 C.ar    1  UNL1       -0.0561
     11 C           2.8660   -1.8229    0.0000 C.ar    1  UNL1       -0.0402
     12 C           2.0000   -0.3229    0.0000 C.ar    1  UNL1       -0.0614
     13 C           5.9674    1.1386    0.0000 C.2     1  UNL1        0.3057
     14 C           2.0000   -1.3229    0.0000 C.ar    1  UNL1       -0.0600
     15 H           5.2908    0.0780    0.0000 H       1  UNL1        0.0449
     16 H           4.9684    1.5520    0.0000 H       1  UNL1        0.0388
     17 H           4.3751    1.0197    0.0000 H       1  UNL1        0.0388
     18 H           4.8709   -2.2170    0.0000 H       1  UNL1        0.1548
     19 H           2.8660    0.7971    0.0000 H       1  UNL1        0.0621
     20 H           2.8660   -2.4429    0.0000 H       1  UNL1        0.0636
     21 H           1.4631   -0.0129    0.0000 H       1  UNL1        0.0618
     22 H           1.4631   -1.6329    0.0000 H       1  UNL1        0.0618
     23 H           6.8848    2.2170    0.0000 H       1  UNL1        0.2951
@<TRIPOS>BOND
     1     1     9    2
     2     2    13    1
     3     2    23    1
     4     3    13    2
     5     4     7    1
     6     4     9   am
     7     4    18    1
     8     5     6    1
     9     5     8    1
    10     5     9    1
    11     5    15    1
    12     6     7   ar
    13     6    10   ar
    14     7    11   ar
    15     8    13    1
    16     8    16    1
    17     8    17    1
    18    10    12   ar
    19    10    19    1
    20    11    14   ar
    21    11    20    1
    22    12    14   ar
    23    12    21    1
    24    14    22    1
