@<TRIPOS>MOLECULE
IMPHY010008
 42 45 0 0 0
SMALL
GASTEIGER

@<TRIPOS>ATOM
      1 O           6.3580   -1.0209    0.0000 O.2     1  UNL1       -0.4543
      2 O          10.8076   -0.7160    0.0000 O.3     1  UNL1       -0.4526
      3 O          10.8014   -2.3255    0.0000 O.3     1  UNL1       -0.4526
      4 O           4.5981    2.0137    0.0000 O.3     1  UNL1       -0.4905
      5 O           2.8660    1.0137    0.0000 O.3     1  UNL1       -0.4885
      6 O           2.8660   -0.9863    0.0000 O.3     1  UNL1       -0.4912
      7 O           6.3465    2.0483    0.0000 O.2     1  UNL1       -0.2869
      8 C           5.4641    0.5137    0.0000 C.ar    1  UNL1        0.1093
      9 C           5.4641   -0.4863    0.0000 C.ar    1  UNL1        0.1465
     10 C           7.2641   -0.5071    0.0000 C.ar    1  UNL1        0.1393
     11 C           8.1282   -1.0104    0.0000 C.ar    1  UNL1        0.0211
     12 C           4.5981    1.0137    0.0000 C.ar    1  UNL1        0.1795
     13 C           6.3580    1.0484    0.0000 C.ar    1  UNL1        0.1967
     14 C           7.2641    0.5346    0.0000 C.ar    1  UNL1        0.0288
     15 C           3.7320    0.5137    0.0000 C.ar    1  UNL1        0.2045
     16 C           4.5981   -0.9863    0.0000 C.ar    1  UNL1        0.0270
     17 C           9.8602   -1.0171    0.0000 C.ar    1  UNL1        0.1669
     18 C           8.9962   -0.5138    0.0000 C.ar    1  UNL1       -0.0055
     19 C           3.7320   -0.4863    0.0000 C.ar    1  UNL1        0.1687
     20 C           9.8564   -2.0171    0.0000 C.ar    1  UNL1        0.1663
     21 C           8.1244   -2.0104    0.0000 C.ar    1  UNL1       -0.0474
     22 C           8.9884   -2.5137    0.0000 C.ar    1  UNL1       -0.0155
     23 C          11.3881   -1.5230    0.0000 C.3     1  UNL1        0.2332
     24 C           3.7320    2.5137    0.0000 C.3     1  UNL1        0.0790
     25 C           2.0000    0.5137    0.0000 C.3     1  UNL1        0.0791
     26 C           2.8660   -1.9863    0.0000 C.3     1  UNL1        0.0790
     27 H           7.7998    0.8466    0.0000 H       1  UNL1        0.0693
     28 H           4.5981   -1.6063    0.0000 H       1  UNL1        0.0692
     29 H           8.9985    0.1062    0.0000 H       1  UNL1        0.0662
     30 H           7.5862   -2.3183    0.0000 H       1  UNL1        0.0626
     31 H           8.9860   -3.1337    0.0000 H       1  UNL1        0.0655
     32 H          11.8474   -1.9395    0.0000 H       1  UNL1        0.1166
     33 H          11.8506   -1.1100    0.0000 H       1  UNL1        0.1166
     34 H           4.0420    3.0507    0.0000 H       1  UNL1        0.0660
     35 H           3.1951    2.8237    0.0000 H       1  UNL1        0.0660
     36 H           3.4220    1.9768    0.0000 H       1  UNL1        0.0660
     37 H           1.6900    1.0507    0.0000 H       1  UNL1        0.0660
     38 H           1.4631    0.2037    0.0000 H       1  UNL1        0.0660
     39 H           2.3100   -0.0232    0.0000 H       1  UNL1        0.0660
     40 H           2.2460   -1.9863    0.0000 H       1  UNL1        0.0660
     41 H           2.8660   -2.6063    0.0000 H       1  UNL1        0.0660
     42 H           3.4860   -1.9863    0.0000 H       1  UNL1        0.0660
@<TRIPOS>BOND
     1     1     9   ar
     2     1    10   ar
     3     2    17    1
     4     2    23    1
     5     3    20    1
     6     3    23    1
     7     4    12    1
     8     4    24    1
     9     5    15    1
    10     5    25    1
    11     6    19    1
    12     6    26    1
    13     7    13    2
    14     8     9   ar
    15     8    12   ar
    16     8    13   ar
    17     9    16   ar
    18    10    11    1
    19    10    14   ar
    20    11    18   ar
    21    11    21   ar
    22    12    15   ar
    23    13    14   ar
    24    14    27    1
    25    15    19   ar
    26    16    19   ar
    27    16    28    1
    28    17    18   ar
    29    17    20   ar
    30    18    29    1
    31    20    22   ar
    32    21    22   ar
    33    21    30    1
    34    22    31    1
    35    23    32    1
    36    23    33    1
    37    24    34    1
    38    24    35    1
    39    24    36    1
    40    25    37    1
    41    25    38    1
    42    25    39    1
    43    26    40    1
    44    26    41    1
    45    26    42    1
