@<TRIPOS>MOLECULE
IMPHY006927
 31 35 0 0 0
SMALL
GASTEIGER

@<TRIPOS>ATOM
      1 O           2.0314    0.3605    0.0000 O.2     1  UNL1       -0.4546
      2 O           2.1468   -3.3072    0.0000 O.2     1  UNL1       -0.4220
      3 O           3.6184    3.5691    0.0000 O.2     1  UNL1       -0.4220
      4 O           4.5126    5.0968    0.0000 O.2     1  UNL1       -0.2452
      5 O           2.3622   -5.0968    0.0000 O.2     1  UNL1       -0.2452
      6 C           3.4252   -0.4443    0.0000 C.ar    1  UNL1        0.0287
      7 C           3.6344    0.5276    0.0000 C.ar    1  UNL1        0.0287
      8 C           2.4365   -0.5473    0.0000 C.ar    1  UNL1        0.1398
      9 C           2.7684    1.0276    0.0000 C.ar    1  UNL1        0.1398
     10 C           4.5005    1.0276    0.0000 C.ar    1  UNL1       -0.0397
     11 C           4.0460   -1.2730    0.0000 C.ar    1  UNL1       -0.0397
     12 C           3.6313   -2.2218    0.0000 C.ar    1  UNL1        0.0184
     13 C           4.5005    2.0276    0.0000 C.ar    1  UNL1        0.0184
     14 C           2.7684    2.0276    0.0000 C.ar    1  UNL1        0.0243
     15 C           2.0000   -1.4863    0.0000 C.ar    1  UNL1        0.0243
     16 C           2.6014   -2.3292    0.0000 C.ar    1  UNL1        0.1426
     17 C           3.6344    2.5276    0.0000 C.ar    1  UNL1        0.1426
     18 C           5.4105    2.5344    0.0000 C.ar    1  UNL1       -0.0443
     19 C           4.2779   -3.0851    0.0000 C.ar    1  UNL1       -0.0443
     20 C           5.4185    3.5760    0.0000 C.ar    1  UNL1        0.0236
     21 C           3.8460   -4.0734    0.0000 C.ar    1  UNL1        0.0236
     22 C           4.5164    4.0968    0.0000 C.ar    1  UNL1        0.3372
     23 C           2.7732   -4.1852    0.0000 C.ar    1  UNL1        0.3372
     24 H           4.6619   -1.2016    0.0000 H       1  UNL1        0.0632
     25 H           5.0374    0.7176    0.0000 H       1  UNL1        0.0632
     26 H           1.3826   -1.5434    0.0000 H       1  UNL1        0.0692
     27 H           2.2315    2.3376    0.0000 H       1  UNL1        0.0692
     28 H           4.8938   -3.0137    0.0000 H       1  UNL1        0.0627
     29 H           5.9438    2.2182    0.0000 H       1  UNL1        0.0627
     30 H           4.2119   -4.5739    0.0000 H       1  UNL1        0.0689
     31 H           5.9566    3.8839    0.0000 H       1  UNL1        0.0689
@<TRIPOS>BOND
     1     1     8   ar
     2     1     9   ar
     3     2    16   ar
     4     2    23   ar
     5     3    17   ar
     6     3    22   ar
     7     4    22    2
     8     5    23    2
     9     6     7   ar
    10     6     8   ar
    11     6    11   ar
    12     7     9   ar
    13     7    10   ar
    14     8    15   ar
    15     9    14   ar
    16    10    13   ar
    17    10    25    1
    18    11    12   ar
    19    11    24    1
    20    12    16   ar
    21    12    19   ar
    22    13    17   ar
    23    13    18   ar
    24    14    17   ar
    25    14    27    1
    26    15    16   ar
    27    15    26    1
    28    18    20   ar
    29    18    29    1
    30    19    21   ar
    31    19    28    1
    32    20    22   ar
    33    20    31    1
    34    21    23   ar
    35    21    30    1
