@<TRIPOS>MOLECULE
IMPHY017177
 27 27 0 0 0
SMALL
GASTEIGER

@<TRIPOS>ATOM
      1 C           3.7320    0.5670    0.0000 C.3     1  UNL1       -0.0346
      2 C           2.8660    0.0670    0.0000 C.3     1  UNL1       -0.0453
      3 C           2.8660   -0.9330    0.0000 C.3     1  UNL1       -0.0434
      4 C           4.5981    0.0670    0.0000 C.3     1  UNL1       -0.0479
      5 C           3.7320   -1.4330    0.0000 C.3     1  UNL1       -0.0504
      6 C           4.5981   -0.9330    0.0000 C.3     1  UNL1       -0.0523
      7 C           4.2320    1.4330    0.0000 C.3     1  UNL1       -0.0598
      8 C           3.2320    1.4330    0.0000 C.3     1  UNL1       -0.0598
      9 C           2.0000   -1.4330    0.0000 C.3     1  UNL1       -0.0624
     10 H           2.6540    0.6496    0.0000 H       1  UNL1        0.0273
     11 H           2.2554   -0.0407    0.0000 H       1  UNL1        0.0273
     12 H           2.8660   -1.7830    0.0000 H       1  UNL1        0.0298
     13 H           5.2087   -0.0407    0.0000 H       1  UNL1        0.0270
     14 H           4.8101    0.6496    0.0000 H       1  UNL1        0.0270
     15 H           3.3335   -1.9080    0.0000 H       1  UNL1        0.0268
     16 H           4.1306   -1.9080    0.0000 H       1  UNL1        0.0268
     17 H           4.8101   -1.5156    0.0000 H       1  UNL1        0.0266
     18 H           5.2087   -0.8254    0.0000 H       1  UNL1        0.0266
     19 H           4.7690    1.1230    0.0000 H       1  UNL1        0.0235
     20 H           4.5420    1.9700    0.0000 H       1  UNL1        0.0235
     21 H           3.6951    1.7430    0.0000 H       1  UNL1        0.0235
     22 H           3.7690    1.7430    0.0000 H       1  UNL1        0.0235
     23 H           2.9220    1.9700    0.0000 H       1  UNL1        0.0235
     24 H           2.6951    1.1230    0.0000 H       1  UNL1        0.0235
     25 H           1.6900   -0.8961    0.0000 H       1  UNL1        0.0232
     26 H           1.4631   -1.7430    0.0000 H       1  UNL1        0.0232
     27 H           2.3100   -1.9700    0.0000 H       1  UNL1        0.0232
@<TRIPOS>BOND
     1     1     2    1
     2     1     4    1
     3     1     7    1
     4     1     8    1
     5     2     3    1
     6     2    10    1
     7     2    11    1
     8     3     5    1
     9     3     9    1
    10     3    12    1
    11     4     6    1
    12     4    13    1
    13     4    14    1
    14     5     6    1
    15     5    15    1
    16     5    16    1
    17     6    17    1
    18     6    18    1
    19     7    19    1
    20     7    20    1
    21     7    21    1
    22     8    22    1
    23     8    23    1
    24     8    24    1
    25     9    25    1
    26     9    26    1
    27     9    27    1
