@<TRIPOS>MOLECULE
IMPHY014068
 38 41 0 0 0
SMALL
GASTEIGER

@<TRIPOS>ATOM
      1 O           6.1621   -0.7228    0.0000 O.3     1  UNL1       -0.4793
      2 O           8.3061    1.3457    0.0000 O.3     1  UNL1       -0.4907
      3 O           4.0521   -1.3244    0.0000 O.3     1  UNL1       -0.4885
      4 O           2.6726    0.1814    0.0000 O.3     1  UNL1       -0.4913
      5 O          10.9457   -0.9985    0.0000 O.3     1  UNL1       -0.5066
      6 C           6.6589    0.8105    0.0000 C.3     1  UNL1        0.0631
      7 C           6.9679   -0.1406    0.0000 C.3     1  UNL1        0.1387
      8 C           5.6648    0.8079    0.0000 C.ar    1  UNL1        0.0084
      9 C           7.3280    1.5536    0.0000 C.3     1  UNL1        0.1002
     10 C           7.9460   -0.3485    0.0000 C.ar    1  UNL1        0.0352
     11 C           5.3584   -0.1378    0.0000 C.ar    1  UNL1        0.1702
     12 C           8.6152    0.3946    0.0000 C.ar    1  UNL1        0.1307
     13 C           4.9832    1.5874    0.0000 C.ar    1  UNL1       -0.0509
     14 C           4.3492   -0.3696    0.0000 C.ar    1  UNL1        0.2038
     15 C           8.2526   -1.3440    0.0000 C.ar    1  UNL1       -0.0481
     16 C           3.9689    1.3790    0.0000 C.ar    1  UNL1       -0.0158
     17 C           3.6498    0.3940    0.0000 C.ar    1  UNL1        0.1652
     18 C           9.6372    0.1938    0.0000 C.ar    1  UNL1        0.0219
     19 C           9.2698   -1.5684    0.0000 C.ar    1  UNL1       -0.0196
     20 C           9.9668   -0.7943    0.0000 C.ar    1  UNL1        0.1204
     21 C           3.0766   -1.5444    0.0000 C.3     1  UNL1        0.0791
     22 C           2.0000    0.9214    0.0000 C.3     1  UNL1        0.0790
     23 H           6.4060    1.3765    0.0000 H       1  UNL1        0.0423
     24 H           7.0960   -0.7472    0.0000 H       1  UNL1        0.0793
     25 H           7.5602    2.1285    0.0000 H       1  UNL1        0.0704
     26 H           6.8022    1.8822    0.0000 H       1  UNL1        0.0704
     27 H           5.1811    2.1750    0.0000 H       1  UNL1        0.0623
     28 H           7.8324   -1.7999    0.0000 H       1  UNL1        0.0624
     29 H           3.5554    1.8410    0.0000 H       1  UNL1        0.0655
     30 H          10.0467    0.6593    0.0000 H       1  UNL1        0.0691
     31 H           9.4591   -2.1588    0.0000 H       1  UNL1        0.0654
     32 H           2.9401   -0.9396    0.0000 H       1  UNL1        0.0660
     33 H           2.4718   -1.6809    0.0000 H       1  UNL1        0.0660
     34 H           3.2130   -2.1492    0.0000 H       1  UNL1        0.0660
     35 H          11.1396   -1.5874    0.0000 H       1  UNL1        0.2921
     36 H           2.4588    1.3385    0.0000 H       1  UNL1        0.0660
     37 H           1.5830    1.3802    0.0000 H       1  UNL1        0.0660
     38 H           1.5412    0.5044    0.0000 H       1  UNL1        0.0660
@<TRIPOS>BOND
     1     1     7    1
     2     1    11    1
     3     2     9    1
     4     2    12    1
     5     3    14    1
     6     3    21    1
     7     4    17    1
     8     4    22    1
     9     5    20    1
    10     5    35    1
    11     6     7    1
    12     6     8    1
    13     6     9    1
    14     6    23    1
    15     7    10    1
    16     7    24    1
    17     8    11   ar
    18     8    13   ar
    19     9    25    1
    20     9    26    1
    21    10    12   ar
    22    10    15   ar
    23    11    14   ar
    24    12    18   ar
    25    13    16   ar
    26    13    27    1
    27    14    17   ar
    28    15    19   ar
    29    15    28    1
    30    16    17   ar
    31    16    29    1
    32    18    20   ar
    33    18    30    1
    34    19    20   ar
    35    19    31    1
    36    21    32    1
    37    21    33    1
    38    21    34    1
    39    22    36    1
    40    22    37    1
    41    22    38    1
