@<TRIPOS>MOLECULE
IMPHY004209
 41 41 0 0 0
SMALL
GASTEIGER

@<TRIPOS>ATOM
      1 O           7.8916   -0.3956    0.0000 O.3     1  UNL1       -0.3657
      2 O           5.5963    1.5304    0.0000 O.2     1  UNL1       -0.2967
      3 C           7.0826    0.1922    0.0000 C.3     1  UNL1        0.0691
      4 C           8.7006    0.1922    0.0000 C.3     1  UNL1        0.0850
      5 C           7.3916    1.1432    0.0000 C.3     1  UNL1       -0.0230
      6 C           8.3916    1.1432    0.0000 C.3     1  UNL1       -0.0180
      7 C           6.1316   -0.1169    0.0000 C.3     1  UNL1        0.0412
      8 C           9.6517    0.5012    0.0000 C.3     1  UNL1       -0.0322
      9 C           9.2884   -0.6169    0.0000 C.2     1  UNL1       -0.0600
     10 C           5.9236   -1.0950    0.0000 C.3     1  UNL1       -0.0533
     11 C           5.3884    0.5523    0.0000 C.2     1  UNL1        0.1423
     12 C           4.4374    0.2432    0.0000 C.3     1  UNL1        0.0246
     13 C           8.8817   -1.5304    0.0000 C.2     1  UNL1       -0.1000
     14 C           3.6942    0.9124    0.0000 C.2     1  UNL1       -0.0782
     15 C           2.7431    0.6034    0.0000 C.2     1  UNL1       -0.0792
     16 C           2.0000    1.2725    0.0000 C.3     1  UNL1       -0.0440
     17 C           2.5352   -0.3748    0.0000 C.3     1  UNL1       -0.0440
     18 H           6.9496   -0.6474    0.0000 H       1  UNL1        0.0603
     19 H           7.4564    1.7598    0.0000 H       1  UNL1        0.0291
     20 H           6.7852    1.2721    0.0000 H       1  UNL1        0.0291
     21 H           8.9981    1.2721    0.0000 H       1  UNL1        0.0297
     22 H           8.3268    1.7598    0.0000 H       1  UNL1        0.0297
     23 H           5.5419   -0.3085    0.0000 H       1  UNL1        0.0400
     24 H           9.8433   -0.0885    0.0000 H       1  UNL1        0.0260
     25 H          10.2413    0.6928    0.0000 H       1  UNL1        0.0260
     26 H           9.4601    1.0908    0.0000 H       1  UNL1        0.0260
     27 H           9.9050   -0.5521    0.0000 H       1  UNL1        0.0594
     28 H           5.3172   -0.9661    0.0000 H       1  UNL1        0.0237
     29 H           5.7947   -1.7015    0.0000 H       1  UNL1        0.0237
     30 H           6.5301   -1.2239    0.0000 H       1  UNL1        0.0237
     31 H           3.9488   -0.1385    0.0000 H       1  UNL1        0.0384
     32 H           4.7284   -0.3042    0.0000 H       1  UNL1        0.0384
     33 H           8.2651   -1.5952    0.0000 H       1  UNL1        0.0533
     34 H           9.2461   -2.0320    0.0000 H       1  UNL1        0.0533
     35 H           3.8231    1.5188    0.0000 H       1  UNL1        0.0576
     36 H           2.4149    1.7332    0.0000 H       1  UNL1        0.0274
     37 H           1.5392    1.6874    0.0000 H       1  UNL1        0.0274
     38 H           1.9288   -0.2459    0.0000 H       1  UNL1        0.0274
     39 H           1.5851    0.8117    0.0000 H       1  UNL1        0.0274
     40 H           2.4063   -0.9812    0.0000 H       1  UNL1        0.0274
     41 H           3.1417   -0.5037    0.0000 H       1  UNL1        0.0274
@<TRIPOS>BOND
     1     1     3    1
     2     1     4    1
     3     2    11    2
     4     3     5    1
     5     3     7    1
     6     3    18    1
     7     4     6    1
     8     4     8    1
     9     4     9    1
    10     5     6    1
    11     5    19    1
    12     5    20    1
    13     6    21    1
    14     6    22    1
    15     7    10    1
    16     7    11    1
    17     7    23    1
    18     8    24    1
    19     8    25    1
    20     8    26    1
    21     9    13    2
    22     9    27    1
    23    10    28    1
    24    10    29    1
    25    10    30    1
    26    11    12    1
    27    12    14    1
    28    12    31    1
    29    12    32    1
    30    13    33    1
    31    13    34    1
    32    14    15    2
    33    14    35    1
    34    15    16    1
    35    15    17    1
    36    16    36    1
    37    16    37    1
    38    16    39    1
    39    17    38    1
    40    17    40    1
    41    17    41    1
