@<TRIPOS>MOLECULE
IMPHY005551
 18 17 0 0 0
SMALL
GASTEIGER

@<TRIPOS>ATOM
      1 O           8.0622   -0.2500    0.0000 O.2     1  UNL1       -0.2963
      2 C           2.8660   -0.2500    0.0000 C.3     1  UNL1       -0.0373
      3 C           3.7320    0.2500    0.0000 C.2     1  UNL1       -0.0843
      4 C           2.0000    0.2500    0.0000 C.3     1  UNL1       -0.0618
      5 C           4.5981   -0.2500    0.0000 C.2     1  UNL1       -0.0656
      6 C           5.4641    0.2500    0.0000 C.2     1  UNL1       -0.0590
      7 C           6.3301   -0.2500    0.0000 C.2     1  UNL1       -0.0225
      8 C           7.1962    0.2500    0.0000 C.2     1  UNL1        0.1431
      9 H           2.4675   -0.7249    0.0000 H       1  UNL1        0.0305
     10 H           3.2646   -0.7249    0.0000 H       1  UNL1        0.0305
     11 H           3.7320    0.8700    0.0000 H       1  UNL1        0.0572
     12 H           2.3100    0.7869    0.0000 H       1  UNL1        0.0233
     13 H           1.4631    0.5600    0.0000 H       1  UNL1        0.0233
     14 H           1.6900   -0.2869    0.0000 H       1  UNL1        0.0233
     15 H           4.5981   -0.8700    0.0000 H       1  UNL1        0.0614
     16 H           5.4641    0.8700    0.0000 H       1  UNL1        0.0618
     17 H           6.3301   -0.8700    0.0000 H       1  UNL1        0.0649
     18 H           7.1962    0.8700    0.0000 H       1  UNL1        0.1075
@<TRIPOS>BOND
     1     1     8    2
     2     2     3    1
     3     2     4    1
     4     2     9    1
     5     2    10    1
     6     3     5    2
     7     3    11    1
     8     4    12    1
     9     4    13    1
    10     4    14    1
    11     5     6    1
    12     5    15    1
    13     6     7    2
    14     6    16    1
    15     7     8    1
    16     7    17    1
    17     8    18    1
