@<TRIPOS>MOLECULE
IMPHY004688
 47 49 0 0 0
SMALL
GASTEIGER

@<TRIPOS>ATOM
      1 O           4.6423    1.2179    0.0000 O.2     1  UNL1       -0.5030
      2 O           2.0000   -0.2894    0.0000 O.2     1  UNL1       -0.2924
      3 O           8.1663   -0.8167    0.0000 O.2     1  UNL1       -0.5058
      4 O           6.4082    2.2557    0.0000 O.2     1  UNL1       -0.2836
      5 O           9.0539    2.7282    0.0000 O.3     1  UNL1       -0.3917
      6 C           4.6641   -0.8136    0.0000 C.3     1  UNL1        0.0293
      7 C           4.6641   -1.8136    0.0000 C.2     1  UNL1       -0.0333
      8 C           3.7702   -0.2789    0.0000 C.3     1  UNL1        0.0237
      9 C           5.5301   -0.3136    0.0000 C.2     1  UNL1        0.0191
     10 C           4.6641    0.1864    0.0000 C.3     1  UNL1       -0.0509
     11 C           6.3961   -0.8136    0.0000 C.2     1  UNL1        0.0244
     12 C           3.7702   -2.3482    0.0000 C.2     1  UNL1       -0.0402
     13 C           2.8641   -0.7928    0.0000 C.2     1  UNL1        0.1604
     14 C           5.5301   -2.3136    0.0000 C.2     1  UNL1       -0.0568
     15 C           2.8641   -1.8344    0.0000 C.2     1  UNL1       -0.0048
     16 C           5.5141    0.7279    0.0000 C.2     1  UNL1        0.1687
     17 C           6.3961   -1.8136    0.0000 C.2     1  UNL1       -0.0504
     18 C           7.3062   -0.3067    0.0000 C.2     1  UNL1        0.1314
     19 C           7.3142    0.7349    0.0000 C.2     1  UNL1        0.0473
     20 C           6.4121    1.2557    0.0000 C.2     1  UNL1        0.2270
     21 C           3.7817   -3.3482    0.0000 C.3     1  UNL1       -0.0391
     22 C           8.1821    1.2315    0.0000 C.3     1  UNL1        0.0054
     23 C           2.0000   -2.3377    0.0000 C.3     1  UNL1       -0.0361
     24 C           8.1860    2.2315    0.0000 C.3     1  UNL1        0.0566
     25 C           7.3219    2.7348    0.0000 C.3     1  UNL1       -0.0386
     26 H           4.1748    0.1909    0.0000 H       1  UNL1        0.0357
     27 H           3.3765    0.2001    0.0000 H       1  UNL1        0.0357
     28 H           5.2841    0.1864    0.0000 H       1  UNL1        0.0242
     29 H           4.6641    0.8064    0.0000 H       1  UNL1        0.0242
     30 H           4.0441    0.1864    0.0000 H       1  UNL1        0.0242
     31 H           5.5301   -2.9336    0.0000 H       1  UNL1        0.0621
     32 H           6.9331   -2.1236    0.0000 H       1  UNL1        0.0625
     33 H           3.1618   -3.3553    0.0000 H       1  UNL1        0.0278
     34 H           3.7889   -3.9681    0.0000 H       1  UNL1        0.0278
     35 H           4.4017   -3.3410    0.0000 H       1  UNL1        0.0278
     36 H           8.3919    0.6481    0.0000 H       1  UNL1        0.0340
     37 H           8.7931    1.3368    0.0000 H       1  UNL1        0.0340
     38 H           1.6879   -1.8020    0.0000 H       1  UNL1        0.0279
     39 H           1.4643   -2.6498    0.0000 H       1  UNL1        0.0279
     40 H           2.3121   -2.8735    0.0000 H       1  UNL1        0.0279
     41 H           8.1893    3.0815    0.0000 H       1  UNL1        0.0594
     42 H           4.6352    1.8378    0.0000 H       1  UNL1        0.2923
     43 H           8.7068   -0.5129    0.0000 H       1  UNL1        0.2922
     44 H           7.6340    3.2706    0.0000 H       1  UNL1        0.0255
     45 H           6.7862    3.0469    0.0000 H       1  UNL1        0.0255
     46 H           7.0098    2.1991    0.0000 H       1  UNL1        0.0255
     47 H           9.0563    3.3482    0.0000 H       1  UNL1        0.2098
@<TRIPOS>BOND
     1     1    16    1
     2     1    42    1
     3     2    13    2
     4     3    18    1
     5     3    43    1
     6     4    20    2
     7     5    24    1
     8     5    47    1
     9     6     7    1
    10     6     8    1
    11     6     9    1
    12     6    10    1
    13     7    12    1
    14     7    14    2
    15     8    13    1
    16     8    26    1
    17     8    27    1
    18     9    11    1
    19     9    16    2
    20    10    28    1
    21    10    29    1
    22    10    30    1
    23    11    17    2
    24    11    18    1
    25    12    15    2
    26    12    21    1
    27    13    15    1
    28    14    17    1
    29    14    31    1
    30    15    23    1
    31    16    20    1
    32    17    32    1
    33    18    19    2
    34    19    20    1
    35    19    22    1
    36    21    33    1
    37    21    34    1
    38    21    35    1
    39    22    24    1
    40    22    36    1
    41    22    37    1
    42    23    38    1
    43    23    39    1
    44    23    40    1
    45    24    25    1
    46    24    41    1
    47    25    44    1
    48    25    45    1
    49    25    46    1
