@<TRIPOS>MOLECULE
IMPHY000554
 37 39 0 0 0
SMALL
GASTEIGER

@<TRIPOS>ATOM
      1 O           4.9927   -0.4047    0.0000 O.3     1  UNL1       -0.4578
      2 O           5.5851   -2.0323    0.0000 O.2     1  UNL1       -0.2450
      3 N           7.5047    2.1923    0.0000 N.3     1  UNL1       -0.2992
      4 C           8.2413    1.2097    0.0000 C.3     1  UNL1        0.0138
      5 C           7.9825    0.2438    0.0000 C.3     1  UNL1        0.0138
      6 C           9.6402    0.7009    0.0000 C.3     1  UNL1       -0.0358
      7 C           9.3814   -0.2650    0.0000 C.3     1  UNL1       -0.0358
      8 C           6.2081    0.8986    0.0000 C.3     1  UNL1        0.0000
      9 C           6.7615   -0.6219    0.0000 C.3     1  UNL1        0.0000
     10 C           5.9324   -0.0627    0.0000 C.3     1  UNL1        0.1063
     11 C           7.0047    3.0584    0.0000 C.3     1  UNL1       -0.0122
     12 C           4.8191   -1.3895    0.0000 C.2     1  UNL1        0.3394
     13 C           3.8794   -1.7315    0.0000 C.ar    1  UNL1        0.0590
     14 C           3.1133   -1.0887    0.0000 C.ar    1  UNL1       -0.0478
     15 C           3.7057   -2.7163    0.0000 C.ar    1  UNL1       -0.0478
     16 C           2.1736   -1.4308    0.0000 C.ar    1  UNL1       -0.0610
     17 C           2.7660   -3.0584    0.0000 C.ar    1  UNL1       -0.0610
     18 C           2.0000   -2.4156    0.0000 C.ar    1  UNL1       -0.0617
     19 H           8.0653   -0.3707    0.0000 H       1  UNL1        0.0464
     20 H           8.6106    1.7077    0.0000 H       1  UNL1        0.0464
     21 H           9.1865   -0.8536    0.0000 H       1  UNL1        0.0281
     22 H           9.9754   -0.4428    0.0000 H       1  UNL1        0.0281
     23 H          10.2342    0.5231    0.0000 H       1  UNL1        0.0281
     24 H           9.8352    1.2895    0.0000 H       1  UNL1        0.0281
     25 H           6.3556   -1.0906    0.0000 H       1  UNL1        0.0316
     26 H           7.1781   -1.0810    0.0000 H       1  UNL1        0.0316
     27 H           6.2030    1.5186    0.0000 H       1  UNL1        0.0316
     28 H           5.5937    0.9824    0.0000 H       1  UNL1        0.0316
     29 H           5.8569   -0.6781    0.0000 H       1  UNL1        0.0735
     30 H           7.5416    3.3684    0.0000 H       1  UNL1        0.0391
     31 H           6.6947    3.5953    0.0000 H       1  UNL1        0.0391
     32 H           6.4678    2.7484    0.0000 H       1  UNL1        0.0391
     33 H           3.2210   -0.4782    0.0000 H       1  UNL1        0.0626
     34 H           4.1807   -3.1149    0.0000 H       1  UNL1        0.0626
     35 H           1.6987   -1.0322    0.0000 H       1  UNL1        0.0618
     36 H           2.6584   -3.6689    0.0000 H       1  UNL1        0.0618
     37 H           1.4174   -2.6276    0.0000 H       1  UNL1        0.0618
@<TRIPOS>BOND
     1     1    10    1
     2     1    12    1
     3     2    12    2
     4     3     4    1
     5     3     5    1
     6     3    11    1
     7     4     6    1
     8     4     8    1
     9     4    20    1
    10     5     7    1
    11     5     9    1
    12     5    19    1
    13     6     7    1
    14     6    23    1
    15     6    24    1
    16     7    21    1
    17     7    22    1
    18     8    10    1
    19     8    27    1
    20     8    28    1
    21     9    10    1
    22     9    25    1
    23     9    26    1
    24    10    29    1
    25    11    30    1
    26    11    31    1
    27    11    32    1
    28    12    13    1
    29    13    14   ar
    30    13    15   ar
    31    14    16   ar
    32    14    33    1
    33    15    17   ar
    34    15    34    1
    35    16    18   ar
    36    16    35    1
    37    17    18   ar
    38    17    36    1
    39    18    37    1
