@<TRIPOS>MOLECULE
IMPHY001222
 18 19 0 0 0
SMALL
GASTEIGER

@<TRIPOS>ATOM
      1 N           4.6783   -0.6077    0.0000 N.pl3   1  UNL1       -0.3433
      2 C           4.6783    1.0018    0.0000 C.3     1  UNL1       -0.0104
      3 C           3.7320    0.6970    0.0000 C.ar    1  UNL1       -0.0251
      4 C           5.2619    0.1970    0.0000 C.3     1  UNL1        0.0132
      5 C           3.7320   -0.3030    0.0000 C.ar    1  UNL1        0.0304
      6 C           2.8660    1.1970    0.0000 C.ar    1  UNL1       -0.0568
      7 C           2.8660   -0.8030    0.0000 C.ar    1  UNL1       -0.0406
      8 C           2.0000    0.6970    0.0000 C.ar    1  UNL1       -0.0614
      9 C           2.0000   -0.3030    0.0000 C.ar    1  UNL1       -0.0600
     10 H           5.2156    1.3110    0.0000 H       1  UNL1        0.0329
     11 H           4.4272    1.5687    0.0000 H       1  UNL1        0.0329
     12 H           5.7227   -0.2177    0.0000 H       1  UNL1        0.0464
     13 H           5.7227    0.6118    0.0000 H       1  UNL1        0.0464
     14 H           4.8709   -1.1970    0.0000 H       1  UNL1        0.1461
     15 H           2.8660    1.8170    0.0000 H       1  UNL1        0.0621
     16 H           2.8660   -1.4230    0.0000 H       1  UNL1        0.0636
     17 H           1.4631    1.0070    0.0000 H       1  UNL1        0.0618
     18 H           1.4631   -0.6130    0.0000 H       1  UNL1        0.0618
@<TRIPOS>BOND
     1     1     4    1
     2     1     5    1
     3     1    14    1
     4     2     3    1
     5     2     4    1
     6     2    10    1
     7     2    11    1
     8     3     5   ar
     9     3     6   ar
    10     4    12    1
    11     4    13    1
    12     5     7   ar
    13     6     8   ar
    14     6    15    1
    15     7     9   ar
    16     7    16    1
    17     8     9   ar
    18     8    17    1
    19     9    18    1
