@<TRIPOS>MOLECULE
IMPHY009881
 84 88 0 0 0
SMALL
GASTEIGER

@<TRIPOS>ATOM
      1 O           5.1804    0.3100    0.0000 O.3     1  UNL1       -0.3912
      2 O          10.4417   -0.7138    0.0000 O.3     1  UNL1       -0.3915
      3 O           2.5381   -3.2456    0.0000 O.3     1  UNL1       -0.3912
      4 O          12.0985    1.6809    0.0000 O.2     1  UNL1       -0.2971
      5 C           6.0682   -1.2214    0.0000 C.3     1  UNL1        0.0065
      6 C           5.2022   -1.7214    0.0000 C.3     1  UNL1       -0.0169
      7 C           5.2020   -0.7210    0.0000 C.3     1  UNL1       -0.0377
      8 C           6.9343   -1.7214    0.0000 C.3     1  UNL1       -0.0265
      9 C           5.2022   -2.7214    0.0000 C.3     1  UNL1       -0.0273
     10 C           7.8443   -1.2146    0.0000 C.3     1  UNL1       -0.0205
     11 C           6.0522   -0.1799    0.0000 C.3     1  UNL1        0.0622
     12 C           7.8523   -0.1730    0.0000 C.3     1  UNL1       -0.0186
     13 C           4.3083   -1.1868    0.0000 C.3     1  UNL1       -0.0441
     14 C           6.9343   -2.7214    0.0000 C.3     1  UNL1       -0.0488
     15 C           6.9502    0.3478    0.0000 C.3     1  UNL1       -0.0200
     16 C           6.0682   -3.2214    0.0000 C.3     1  UNL1       -0.0488
     17 C           4.3083   -3.2561    0.0000 C.3     1  UNL1       -0.0056
     18 C           8.8403    0.1368    0.0000 C.3     1  UNL1       -0.0064
     19 C           8.8274   -1.5396    0.0000 C.3     1  UNL1       -0.0204
     20 C           3.4022   -1.7006    0.0000 C.3     1  UNL1       -0.0258
     21 C           9.4418   -0.7061    0.0000 C.3     1  UNL1        0.0593
     22 C           3.4022   -2.7423    0.0000 C.3     1  UNL1        0.0606
     23 C           7.8366   -2.2146    0.0000 C.3     1  UNL1       -0.0587
     24 C           7.8600    0.8270    0.0000 C.3     1  UNL1       -0.0586
     25 C           9.1583    1.0849    0.0000 C.3     1  UNL1       -0.0378
     26 C           3.8183   -4.1279    0.0000 C.3     1  UNL1       -0.0572
     27 C           4.8183   -4.1163    0.0000 C.3     1  UNL1       -0.0572
     28 C          10.1384    1.2836    0.0000 C.3     1  UNL1       -0.0434
     29 C           8.4962    1.8343    0.0000 C.3     1  UNL1       -0.0621
     30 C          10.4564    2.2317    0.0000 C.3     1  UNL1        0.0063
     31 C          11.4364    2.4303    0.0000 C.2     1  UNL1        0.1359
     32 C          11.7544    3.3784    0.0000 C.3     1  UNL1        0.0119
     33 C          12.7345    3.5771    0.0000 C.3     1  UNL1       -0.0560
     34 C          11.0923    4.1279    0.0000 C.3     1  UNL1       -0.0560
     35 H           5.4141   -0.1384    0.0000 H       1  UNL1        0.0277
     36 H           4.5914   -0.6134    0.0000 H       1  UNL1        0.0277
     37 H           7.6671   -2.1521    0.0000 H       1  UNL1        0.0313
     38 H           5.2088   -3.5714    0.0000 H       1  UNL1        0.0312
     39 H           6.0462    0.4400    0.0000 H       1  UNL1        0.0599
     40 H           4.7129   -0.7170    0.0000 H       1  UNL1        0.0272
     41 H           3.9147   -0.7078    0.0000 H       1  UNL1        0.0272
     42 H           7.1463   -3.3041    0.0000 H       1  UNL1        0.0268
     43 H           7.5449   -2.6138    0.0000 H       1  UNL1        0.0268
     44 H           7.3475    0.8238    0.0000 H       1  UNL1        0.0296
     45 H           6.5493    0.8207    0.0000 H       1  UNL1        0.0296
     46 H           5.6697   -3.6964    0.0000 H       1  UNL1        0.0268
     47 H           6.4668   -3.6964    0.0000 H       1  UNL1        0.0268
     48 H           8.2453    0.7437    0.0000 H       1  UNL1        0.0334
     49 H           8.5720   -2.1046    0.0000 H       1  UNL1        0.0296
     50 H           9.3624   -1.8530    0.0000 H       1  UNL1        0.0296
     51 H           3.1932   -1.1170    0.0000 H       1  UNL1        0.0290
     52 H           2.7914   -1.8067    0.0000 H       1  UNL1        0.0290
     53 H           9.7192   -1.2606    0.0000 H       1  UNL1        0.0596
     54 H           2.8647   -2.4333    0.0000 H       1  UNL1        0.0599
     55 H           7.2166   -2.2098    0.0000 H       1  UNL1        0.0235
     56 H           7.8318   -2.8346    0.0000 H       1  UNL1        0.0235
     57 H           8.4566   -2.2194    0.0000 H       1  UNL1        0.0235
     58 H           8.4800    0.8222    0.0000 H       1  UNL1        0.0235
     59 H           7.8648    1.4470    0.0000 H       1  UNL1        0.0235
     60 H           7.2400    0.8317    0.0000 H       1  UNL1        0.0235
     61 H           9.3555    1.6727    0.0000 H       1  UNL1        0.0302
     62 H           5.1733    0.9300    0.0000 H       1  UNL1        0.2098
     63 H           3.2778   -3.8241    0.0000 H       1  UNL1        0.0236
     64 H           3.5146   -4.6684    0.0000 H       1  UNL1        0.0236
     65 H           4.3588   -4.4316    0.0000 H       1  UNL1        0.0236
     66 H           4.2850   -4.4325    0.0000 H       1  UNL1        0.0236
     67 H           5.1344   -4.6496    0.0000 H       1  UNL1        0.0236
     68 H           5.3516   -3.8001    0.0000 H       1  UNL1        0.0236
     69 H          10.7476   -1.2531    0.0000 H       1  UNL1        0.2098
     70 H           2.0000   -2.9377    0.0000 H       1  UNL1        0.2098
     71 H          10.1542    0.6638    0.0000 H       1  UNL1        0.0272
     72 H          10.7515    1.1915    0.0000 H       1  UNL1        0.0272
     73 H           8.9609    2.2448    0.0000 H       1  UNL1        0.0233
     74 H           8.0857    2.2990    0.0000 H       1  UNL1        0.0233
     75 H           8.0316    1.4238    0.0000 H       1  UNL1        0.0233
     76 H          10.4406    2.8515    0.0000 H       1  UNL1        0.0342
     77 H           9.8432    2.3238    0.0000 H       1  UNL1        0.0342
     78 H          11.9516    3.9663    0.0000 H       1  UNL1        0.0372
     79 H          12.8577    2.9695    0.0000 H       1  UNL1        0.0236
     80 H          13.3421    3.7003    0.0000 H       1  UNL1        0.0236
     81 H          12.6113    4.1848    0.0000 H       1  UNL1        0.0236
     82 H          11.5570    4.5384    0.0000 H       1  UNL1        0.0236
     83 H          10.6818    4.5925    0.0000 H       1  UNL1        0.0236
     84 H          10.6277    3.7174    0.0000 H       1  UNL1        0.0236
@<TRIPOS>BOND
     1    11     1    1
     2     1    62    1
     3    21     2    1
     4     2    69    1
     5    22     3    1
     6     3    70    1
     7     4    31    2
     8     5     6    1
     9     5     7    1
    10     5     8    1
    11     5    11    1
    12     6     7    1
    13     6     9    1
    14     6    13    1
    15     7    35    1
    16     7    36    1
    17     8    10    1
    18     8    14    1
    19     8    37    1
    20     9    16    1
    21     9    17    1
    22     9    38    1
    23    10    12    1
    24    10    19    1
    25    10    23    1
    26    11    15    1
    27    11    39    1
    28    12    15    1
    29    12    18    1
    30    12    24    1
    31    13    20    1
    32    13    40    1
    33    13    41    1
    34    14    16    1
    35    14    42    1
    36    14    43    1
    37    15    44    1
    38    15    45    1
    39    16    46    1
    40    16    47    1
    41    17    22    1
    42    17    26    1
    43    17    27    1
    44    18    21    1
    45    18    25    1
    46    18    48    1
    47    19    21    1
    48    19    49    1
    49    19    50    1
    50    20    22    1
    51    20    51    1
    52    20    52    1
    53    21    53    1
    54    22    54    1
    55    23    55    1
    56    23    56    1
    57    23    57    1
    58    24    58    1
    59    24    59    1
    60    24    60    1
    61    25    28    1
    62    25    29    1
    63    25    61    1
    64    26    63    1
    65    26    64    1
    66    26    65    1
    67    27    66    1
    68    27    67    1
    69    27    68    1
    70    28    30    1
    71    28    71    1
    72    28    72    1
    73    29    73    1
    74    29    74    1
    75    29    75    1
    76    30    31    1
    77    30    76    1
    78    30    77    1
    79    31    32    1
    80    32    33    1
    81    32    34    1
    82    32    78    1
    83    33    79    1
    84    33    80    1
    85    33    81    1
    86    34    82    1
    87    34    83    1
    88    34    84    1
