@<TRIPOS>MOLECULE
IMPHY008154
 52 54 0 0 0
SMALL
GASTEIGER

@<TRIPOS>ATOM
      1 O           8.9942   -2.0670    0.0000 O.3     1  UNL1       -0.4849
      2 O           7.6355    0.8769    0.0000 O.2     1  UNL1       -0.4625
      3 O          12.4583    0.9330    0.0000 O.2     1  UNL1       -0.2977
      4 C           9.8602   -0.5670    0.0000 C.3     1  UNL1        0.0275
      5 C           9.8602   -1.5670    0.0000 C.3     1  UNL1        0.1120
      6 C           8.9942   -0.0670    0.0000 C.ar    1  UNL1        0.0085
      7 C          10.7263   -0.0670    0.0000 C.3     1  UNL1       -0.0358
      8 C           8.1282   -0.5670    0.0000 C.ar    1  UNL1        0.0653
      9 C           8.1282   -1.5670    0.0000 C.ar    1  UNL1        0.1326
     10 C          10.3602   -2.4330    0.0000 C.3     1  UNL1       -0.0246
     11 C          10.8602   -1.5670    0.0000 C.3     1  UNL1       -0.0246
     12 C           7.2342   -0.0323    0.0000 C.ar    1  UNL1        0.1388
     13 C          10.7263    0.9330    0.0000 C.3     1  UNL1        0.0062
     14 C           8.6291    0.8573    0.0000 C.ar    1  UNL1        0.0968
     15 C           7.2342   -2.1016    0.0000 C.ar    1  UNL1       -0.0159
     16 C           6.3282   -1.5878    0.0000 C.ar    1  UNL1       -0.0404
     17 C           6.3282   -0.5462    0.0000 C.ar    1  UNL1       -0.0153
     18 C           5.4641   -2.0911    0.0000 C.3     1  UNL1       -0.0275
     19 C          11.5923    1.4330    0.0000 C.2     1  UNL1        0.1303
     20 C           4.5961   -1.5945    0.0000 C.3     1  UNL1       -0.0491
     21 C           3.7320   -2.0978    0.0000 C.3     1  UNL1       -0.0530
     22 C          11.5923    2.4330    0.0000 C.3     1  UNL1       -0.0061
     23 C           2.8641   -1.6012    0.0000 C.3     1  UNL1       -0.0559
     24 C           2.0000   -2.1045    0.0000 C.3     1  UNL1       -0.0653
     25 H          10.3972   -0.8770    0.0000 H       1  UNL1        0.0389
     26 H          10.9383   -0.6496    0.0000 H       1  UNL1        0.0276
     27 H          11.3368    0.0407    0.0000 H       1  UNL1        0.0276
     28 H          10.8602   -2.1870    0.0000 H       1  UNL1        0.0268
     29 H          11.4802   -1.5670    0.0000 H       1  UNL1        0.0268
     30 H          10.8602   -0.9470    0.0000 H       1  UNL1        0.0268
     31 H           9.8233   -2.7430    0.0000 H       1  UNL1        0.0268
     32 H          10.6702   -2.9700    0.0000 H       1  UNL1        0.0268
     33 H          10.8972   -2.1230    0.0000 H       1  UNL1        0.0268
     34 H          10.5142    1.5156    0.0000 H       1  UNL1        0.0342
     35 H          10.1157    0.8254    0.0000 H       1  UNL1        0.0342
     36 H           8.9828    1.3665    0.0000 H       1  UNL1        0.1032
     37 H           7.2414   -2.7216    0.0000 H       1  UNL1        0.0657
     38 H           5.7924   -0.2341    0.0000 H       1  UNL1        0.0657
     39 H           5.0674   -2.5676    0.0000 H       1  UNL1        0.0313
     40 H           5.8644   -2.5645    0.0000 H       1  UNL1        0.0313
     41 H           4.9928   -1.1180    0.0000 H       1  UNL1        0.0268
     42 H           4.1958   -1.1211    0.0000 H       1  UNL1        0.0268
     43 H           3.3353   -2.5743    0.0000 H       1  UNL1        0.0265
     44 H           4.1324   -2.5712    0.0000 H       1  UNL1        0.0265
     45 H          12.2123    2.4330    0.0000 H       1  UNL1        0.0306
     46 H          11.5923    3.0530    0.0000 H       1  UNL1        0.0306
     47 H          10.9723    2.4330    0.0000 H       1  UNL1        0.0306
     48 H           3.2608   -1.1247    0.0000 H       1  UNL1        0.0263
     49 H           2.4637   -1.1278    0.0000 H       1  UNL1        0.0263
     50 H           1.6879   -1.5688    0.0000 H       1  UNL1        0.0230
     51 H           1.4643   -2.4166    0.0000 H       1  UNL1        0.0230
     52 H           2.3121   -2.6402    0.0000 H       1  UNL1        0.0230
@<TRIPOS>BOND
     1     1     5    1
     2     1     9    1
     3     2    12   ar
     4     2    14   ar
     5     3    19    2
     6     4     5    1
     7     4     6    1
     8     4     7    1
     9     4    25    1
    10     5    10    1
    11     5    11    1
    12     6     8   ar
    13     6    14   ar
    14     7    13    1
    15     7    26    1
    16     7    27    1
    17     8     9   ar
    18     8    12   ar
    19     9    15   ar
    20    10    31    1
    21    10    32    1
    22    10    33    1
    23    11    28    1
    24    11    29    1
    25    11    30    1
    26    12    17   ar
    27    13    19    1
    28    13    34    1
    29    13    35    1
    30    14    36    1
    31    15    16   ar
    32    15    37    1
    33    16    17   ar
    34    16    18    1
    35    17    38    1
    36    18    20    1
    37    18    39    1
    38    18    40    1
    39    19    22    1
    40    20    21    1
    41    20    41    1
    42    20    42    1
    43    21    23    1
    44    21    43    1
    45    21    44    1
    46    22    45    1
    47    22    46    1
    48    22    47    1
    49    23    24    1
    50    23    48    1
    51    23    49    1
    52    24    50    1
    53    24    51    1
    54    24    52    1
