@<TRIPOS>MOLECULE
IMPHY013686
 53 55 0 0 0
SMALL
GASTEIGER

@<TRIPOS>ATOM
      1 O           6.9473   -0.8047    0.0000 O.3     1  UNL1       -0.4797
      2 O           5.1350   -2.0000    0.0000 O.3     1  UNL1       -0.4914
      3 O          10.5309    1.7320    0.0000 O.3     1  UNL1       -0.4913
      4 O          10.5309   -1.7320    0.0000 O.3     1  UNL1       -0.4913
      5 O          11.5309   -0.0000    0.0000 O.3     1  UNL1       -0.4885
      6 C           6.9473    0.8047    0.0000 C.3     1  UNL1        0.0262
      7 C           7.5309    0.0000    0.0000 C.3     1  UNL1        0.1322
      8 C           6.0010    0.5000    0.0000 C.ar    1  UNL1        0.0052
      9 C           6.0010   -0.5000    0.0000 C.ar    1  UNL1        0.1664
     10 C           8.5309    0.0000    0.0000 C.ar    1  UNL1        0.0004
     11 C           7.2579    1.7552    0.0000 C.3     1  UNL1       -0.0546
     12 C           5.1350    1.0000    0.0000 C.ar    1  UNL1       -0.0473
     13 C           5.1350   -1.0000    0.0000 C.ar    1  UNL1        0.1624
     14 C           4.2690    0.5000    0.0000 C.ar    1  UNL1       -0.0214
     15 C           9.0309   -0.8660    0.0000 C.ar    1  UNL1       -0.0094
     16 C           9.0309    0.8660    0.0000 C.ar    1  UNL1       -0.0094
     17 C           4.2690   -0.5000    0.0000 C.ar    1  UNL1       -0.0091
     18 C          10.0309    0.8660    0.0000 C.ar    1  UNL1        0.1655
     19 C          10.0309   -0.8660    0.0000 C.ar    1  UNL1        0.1655
     20 C          10.5309   -0.0000    0.0000 C.ar    1  UNL1        0.2035
     21 C           3.4030    1.0000    0.0000 C.2     1  UNL1       -0.0587
     22 C           4.2690   -2.5000    0.0000 C.3     1  UNL1        0.0790
     23 C           2.5369    0.5000    0.0000 C.2     1  UNL1       -0.0865
     24 C          10.0309    2.5981    0.0000 C.3     1  UNL1        0.0790
     25 C          10.0309   -2.5981    0.0000 C.3     1  UNL1        0.0790
     26 C           2.5369   -0.5000    0.0000 C.3     1  UNL1       -0.0465
     27 C          12.0309   -0.8660    0.0000 C.3     1  UNL1        0.0791
     28 H           6.5098    1.2441    0.0000 H       1  UNL1        0.0387
     29 H           7.8126    0.5523    0.0000 H       1  UNL1        0.0790
     30 H           7.8472    1.5626    0.0000 H       1  UNL1        0.0237
     31 H           7.4505    2.3446    0.0000 H       1  UNL1        0.0237
     32 H           6.6686    1.9479    0.0000 H       1  UNL1        0.0237
     33 H           5.1350    1.6200    0.0000 H       1  UNL1        0.0627
     34 H           8.7209   -1.4030    0.0000 H       1  UNL1        0.0659
     35 H           8.7209    1.4030    0.0000 H       1  UNL1        0.0659
     36 H           3.7320   -0.8100    0.0000 H       1  UNL1        0.0661
     37 H           3.4030    1.6200    0.0000 H       1  UNL1        0.0620
     38 H           3.9590   -1.9631    0.0000 H       1  UNL1        0.0660
     39 H           3.7320   -2.8100    0.0000 H       1  UNL1        0.0660
     40 H           4.5790   -3.0369    0.0000 H       1  UNL1        0.0660
     41 H           2.0000    0.8100    0.0000 H       1  UNL1        0.0569
     42 H          10.5678    2.9081    0.0000 H       1  UNL1        0.0660
     43 H           9.7209    3.1350    0.0000 H       1  UNL1        0.0660
     44 H           9.4939    2.2881    0.0000 H       1  UNL1        0.0660
     45 H           9.4939   -2.2881    0.0000 H       1  UNL1        0.0660
     46 H           9.7209   -3.1350    0.0000 H       1  UNL1        0.0660
     47 H          10.5678   -2.9081    0.0000 H       1  UNL1        0.0660
     48 H           1.9169   -0.5000    0.0000 H       1  UNL1        0.0272
     49 H           2.5369   -1.1200    0.0000 H       1  UNL1        0.0272
     50 H           3.1569   -0.5000    0.0000 H       1  UNL1        0.0272
     51 H          11.4939   -1.1760    0.0000 H       1  UNL1        0.0660
     52 H          12.3409   -1.4030    0.0000 H       1  UNL1        0.0660
     53 H          12.5678   -0.5560    0.0000 H       1  UNL1        0.0660
@<TRIPOS>BOND
     1     1     7    1
     2     1     9    1
     3     2    13    1
     4     2    22    1
     5     3    18    1
     6     3    24    1
     7     4    19    1
     8     4    25    1
     9     5    20    1
    10     5    27    1
    11     6     7    1
    12     6     8    1
    13     6    11    1
    14     6    28    1
    15     7    10    1
    16     7    29    1
    17     8     9   ar
    18     8    12   ar
    19     9    13   ar
    20    10    15   ar
    21    10    16   ar
    22    11    30    1
    23    11    31    1
    24    11    32    1
    25    12    14   ar
    26    12    33    1
    27    13    17   ar
    28    14    17   ar
    29    14    21    1
    30    15    19   ar
    31    15    34    1
    32    16    18   ar
    33    16    35    1
    34    17    36    1
    35    18    20   ar
    36    19    20   ar
    37    21    23    2
    38    21    37    1
    39    22    38    1
    40    22    39    1
    41    22    40    1
    42    23    26    1
    43    23    41    1
    44    24    42    1
    45    24    43    1
    46    24    44    1
    47    25    45    1
    48    25    46    1
    49    25    47    1
    50    26    48    1
    51    26    49    1
    52    26    50    1
    53    27    51    1
    54    27    52    1
    55    27    53    1
