@<TRIPOS>MOLECULE
IMPHY008228
 163 170 0 0 0
SMALL
GASTEIGER

@<TRIPOS>ATOM
      1 O           9.4651   -4.5903    0.0000 O.3     1  UNL1       -0.3422
      2 O          14.4479    2.5701    0.0000 O.3     1  UNL1       -0.3449
      3 O          13.9151   -0.4120    0.0000 O.2     1  UNL1       -0.3004
      4 O           7.7331   -4.5903    0.0000 O.3     1  UNL1       -0.3405
      5 O          15.7326    1.4084    0.0000 O.3     1  UNL1       -0.3405
      6 O          15.7893    4.0535    0.0000 O.3     1  UNL1       -0.3378
      7 O           9.4651   -6.5903    0.0000 O.3     1  UNL1       -0.3841
      8 O           7.7331   -7.5903    0.0000 O.3     1  UNL1       -0.3864
      9 O          17.7447    3.6336    0.0000 O.3     1  UNL1       -0.3864
     10 O           6.0010   -6.5903    0.0000 O.3     1  UNL1       -0.3865
     11 O          18.3587    1.7301    0.0000 O.3     1  UNL1       -0.3865
     12 O           6.0010   -3.5903    0.0000 O.3     1  UNL1       -0.3461
     13 O          17.4377    4.5853    0.0000 O.3     1  UNL1       -0.3405
     14 O          17.9950    0.0367    0.0000 O.3     1  UNL1       -0.3924
     15 O          15.1753    5.9570    0.0000 O.3     1  UNL1       -0.3841
     16 O          16.5167    7.4404    0.0000 O.3     1  UNL1       -0.3864
     17 O           4.2690   -3.5903    0.0000 O.3     1  UNL1       -0.3461
     18 O          18.4721    7.0204    0.0000 O.3     1  UNL1       -0.3865
     19 O           6.0010   -1.5903    0.0000 O.3     1  UNL1       -0.3841
     20 O          19.3931    4.1653    0.0000 O.3     1  UNL1       -0.3924
     21 O           4.2690   -0.5903    0.0000 O.3     1  UNL1       -0.3864
     22 O           2.5369   -1.5903    0.0000 O.3     1  UNL1       -0.3869
     23 C          10.6271   -0.3118    0.0000 C.3     1  UNL1       -0.0227
     24 C           9.9592   -1.0561    0.0000 C.3     1  UNL1       -0.0232
     25 C          11.6056   -0.5180    0.0000 C.3     1  UNL1       -0.0228
     26 C          10.2699   -2.0066    0.0000 C.3     1  UNL1       -0.0297
     27 C          12.3131    0.2464    0.0000 C.3     1  UNL1        0.0327
     28 C          11.9971    1.2390    0.0000 C.3     1  UNL1       -0.0212
     29 C           9.4651   -2.5903    0.0000 C.3     1  UNL1       -0.0087
     30 C          10.2882    0.6732    0.0000 C.3     1  UNL1       -0.0465
     31 C          11.9162   -1.4686    0.0000 C.3     1  UNL1       -0.0485
     32 C           8.9651   -1.0604    0.0000 C.3     1  UNL1       -0.0465
     33 C          11.2484   -2.2129    0.0000 C.3     1  UNL1       -0.0491
     34 C          10.9779    1.4538    0.0000 C.3     1  UNL1       -0.0482
     35 C           8.6604   -2.0066    0.0000 C.3     1  UNL1       -0.0468
     36 C          12.7155    2.0521    0.0000 C.3     1  UNL1       -0.0048
     37 C          13.3693   -0.0018    0.0000 C.3     1  UNL1       -0.0380
     38 C           9.7781    0.2166    0.0000 C.3     1  UNL1       -0.0588
     39 C           9.3422   -0.2692    0.0000 C.3     1  UNL1       -0.0588
     40 C           9.4651   -3.5903    0.0000 C.3     1  UNL1        0.0732
     41 C          13.7772    1.8284    0.0000 C.3     1  UNL1        0.0672
     42 C          14.1063    0.7945    0.0000 C.3     1  UNL1       -0.0251
     43 C          12.9240   -0.5453    0.0000 C.2     1  UNL1        0.1270
     44 C          12.9179    3.0314    0.0000 C.3     1  UNL1       -0.0572
     45 C          11.9686    2.7171    0.0000 C.3     1  UNL1       -0.0572
     46 C          10.4651   -3.5903    0.0000 C.3     1  UNL1       -0.0202
     47 C           8.4651   -3.5903    0.0000 C.3     1  UNL1       -0.0354
     48 C          10.9651   -4.4563    0.0000 C.3     1  UNL1       -0.0319
     49 C           8.5991   -5.0903    0.0000 C.3     1  UNL1        0.1885
     50 C          15.4256    2.3601    0.0000 C.3     1  UNL1        0.1886
     51 C          16.0963    3.1018    0.0000 C.3     1  UNL1        0.1406
     52 C           8.5991   -6.0903    0.0000 C.3     1  UNL1        0.1341
     53 C          11.9651   -4.4563    0.0000 C.2     1  UNL1       -0.0852
     54 C           7.7331   -6.5903    0.0000 C.3     1  UNL1        0.1141
     55 C          17.0740    2.8918    0.0000 C.3     1  UNL1        0.1144
     56 C           6.8671   -5.0903    0.0000 C.3     1  UNL1        0.1134
     57 C          16.7103    1.1984    0.0000 C.3     1  UNL1        0.1130
     58 C           6.8671   -6.0903    0.0000 C.3     1  UNL1        0.1119
     59 C          17.3810    1.9401    0.0000 C.3     1  UNL1        0.1119
     60 C          12.4651   -5.3223    0.0000 C.2     1  UNL1       -0.0796
     61 C           6.0010   -4.5903    0.0000 C.3     1  UNL1        0.0796
     62 C          17.0173    0.2467    0.0000 C.3     1  UNL1        0.0730
     63 C          16.4600    4.7952    0.0000 C.3     1  UNL1        0.1885
     64 C          13.4651   -5.3223    0.0000 C.3     1  UNL1       -0.0440
     65 C          11.9651   -6.1883    0.0000 C.3     1  UNL1       -0.0440
     66 C          16.1530    5.7470    0.0000 C.3     1  UNL1        0.1341
     67 C          16.8237    6.4887    0.0000 C.3     1  UNL1        0.1141
     68 C          18.1084    5.3270    0.0000 C.3     1  UNL1        0.1130
     69 C          17.8014    6.2787    0.0000 C.3     1  UNL1        0.1119
     70 C           5.1350   -3.0903    0.0000 C.3     1  UNL1        0.1876
     71 C           5.1350   -2.0903    0.0000 C.3     1  UNL1        0.1341
     72 C          19.0861    5.1170    0.0000 C.3     1  UNL1        0.0730
     73 C           4.2690   -1.5903    0.0000 C.3     1  UNL1        0.1137
     74 C           3.4030   -3.0903    0.0000 C.3     1  UNL1        0.0792
     75 C           3.4030   -2.0903    0.0000 C.3     1  UNL1        0.1069
     76 H          12.4359   -0.6997    0.0000 H       1  UNL1        0.0316
     77 H          10.4470   -2.8380    0.0000 H       1  UNL1        0.0310
     78 H          11.7299    2.0459    0.0000 H       1  UNL1        0.0316
     79 H           8.7080   -2.9765    0.0000 H       1  UNL1        0.0331
     80 H           9.9007    1.1571    0.0000 H       1  UNL1        0.0271
     81 H           9.7451    0.3741    0.0000 H       1  UNL1        0.0271
     82 H          12.2988   -1.9565    0.0000 H       1  UNL1        0.0268
     83 H          12.4631   -1.1766    0.0000 H       1  UNL1        0.0268
     84 H           9.0276   -0.4436    0.0000 H       1  UNL1        0.0271
     85 H           8.3583   -0.9334    0.0000 H       1  UNL1        0.0271
     86 H          11.0171   -2.7881    0.0000 H       1  UNL1        0.0268
     87 H          11.7747   -2.5405    0.0000 H       1  UNL1        0.0268
     88 H          11.2077    2.0296    0.0000 H       1  UNL1        0.0269
     89 H          10.4498    1.7787    0.0000 H       1  UNL1        0.0269
     90 H           8.0935   -1.7556    0.0000 H       1  UNL1        0.0269
     91 H           8.3512   -2.5440    0.0000 H       1  UNL1        0.0269
     92 H          13.1263   -0.5722    0.0000 H       1  UNL1        0.0276
     93 H          13.8897   -0.3389    0.0000 H       1  UNL1        0.0276
     94 H          10.1057    0.7430    0.0000 H       1  UNL1        0.0235
     95 H           9.2517    0.5443    0.0000 H       1  UNL1        0.0235
     96 H           9.4504   -0.3097    0.0000 H       1  UNL1        0.0235
     97 H           9.8301    0.1134    0.0000 H       1  UNL1        0.0235
     98 H           8.9596    0.2187    0.0000 H       1  UNL1        0.0235
     99 H           8.8543   -0.6517    0.0000 H       1  UNL1        0.0235
    100 H          14.3831    1.6970    0.0000 H       1  UNL1        0.0602
    101 H          14.4825    0.3017    0.0000 H       1  UNL1        0.0291
    102 H          14.6562    1.0809    0.0000 H       1  UNL1        0.0291
    103 H          12.6884   -1.1187    0.0000 H       1  UNL1        0.1032
    104 H          12.3809    3.1801    0.0000 H       1  UNL1        0.0236
    105 H          11.5056    3.1294    0.0000 H       1  UNL1        0.0236
    106 H          13.5251    2.9059    0.0000 H       1  UNL1        0.0236
    107 H          13.0434    3.6386    0.0000 H       1  UNL1        0.0236
    108 H          12.3108    3.1569    0.0000 H       1  UNL1        0.0236
    109 H          11.5563    2.2540    0.0000 H       1  UNL1        0.0236
    110 H          11.0477   -3.3782    0.0000 H       1  UNL1        0.0296
    111 H          10.3575   -2.9797    0.0000 H       1  UNL1        0.0296
    112 H           8.4651   -2.9703    0.0000 H       1  UNL1        0.0257
    113 H           7.8451   -3.5903    0.0000 H       1  UNL1        0.0257
    114 H           8.4651   -4.2103    0.0000 H       1  UNL1        0.0257
    115 H          10.3825   -4.6683    0.0000 H       1  UNL1        0.0308
    116 H          11.0728   -5.0669    0.0000 H       1  UNL1        0.0308
    117 H           8.5991   -4.4703    0.0000 H       1  UNL1        0.0938
    118 H          15.2352    2.9502    0.0000 H       1  UNL1        0.0938
    119 H          16.5121    3.5617    0.0000 H       1  UNL1        0.0675
    120 H           8.5991   -6.7103    0.0000 H       1  UNL1        0.0671
    121 H          12.2751   -3.9194    0.0000 H       1  UNL1        0.0571
    122 H           7.1962   -6.9003    0.0000 H       1  UNL1        0.0648
    123 H          17.6802    2.7616    0.0000 H       1  UNL1        0.0648
    124 H           6.8671   -4.4703    0.0000 H       1  UNL1        0.0647
    125 H          16.2944    0.7385    0.0000 H       1  UNL1        0.0647
    126 H           6.3301   -5.7803    0.0000 H       1  UNL1        0.0647
    127 H          17.5713    1.3500    0.0000 H       1  UNL1        0.0647
    128 H           9.4651   -7.2103    0.0000 H       1  UNL1        0.2101
    129 H           5.3905   -4.4826    0.0000 H       1  UNL1        0.0587
    130 H           5.7890   -5.1729    0.0000 H       1  UNL1        0.0587
    131 H          16.4031    0.1617    0.0000 H       1  UNL1        0.0584
    132 H          16.9943   -0.3729    0.0000 H       1  UNL1        0.0584
    133 H          15.8538    4.9254    0.0000 H       1  UNL1        0.0938
    134 H           7.1962   -7.9003    0.0000 H       1  UNL1        0.2100
    135 H          18.3509    3.5034    0.0000 H       1  UNL1        0.2100
    136 H          11.4282   -5.8783    0.0000 H       1  UNL1        0.0274
    137 H          13.4651   -5.9423    0.0000 H       1  UNL1        0.0274
    138 H          11.6551   -6.7253    0.0000 H       1  UNL1        0.0274
    139 H          12.5021   -6.4983    0.0000 H       1  UNL1        0.0274
    140 H          14.0851   -5.3223    0.0000 H       1  UNL1        0.0274
    141 H          13.4651   -4.7023    0.0000 H       1  UNL1        0.0274
    142 H           5.4641   -6.2803    0.0000 H       1  UNL1        0.2100
    143 H          18.7745    2.1900    0.0000 H       1  UNL1        0.2100
    144 H          15.9627    6.3370    0.0000 H       1  UNL1        0.0671
    145 H          18.1853   -0.5534    0.0000 H       1  UNL1        0.2095
    146 H          17.2395    6.9486    0.0000 H       1  UNL1        0.0648
    147 H          18.2987    4.7369    0.0000 H       1  UNL1        0.0647
    148 H          18.4076    6.1485    0.0000 H       1  UNL1        0.0647
    149 H           5.6720   -2.7803    0.0000 H       1  UNL1        0.0937
    150 H          14.9849    6.5470    0.0000 H       1  UNL1        0.2101
    151 H           5.1350   -1.4703    0.0000 H       1  UNL1        0.0671
    152 H          19.7002    5.2020    0.0000 H       1  UNL1        0.0584
    153 H          19.1091    5.7366    0.0000 H       1  UNL1        0.0584
    154 H          16.9325    7.9003    0.0000 H       1  UNL1        0.2100
    155 H          19.0783    6.8902    0.0000 H       1  UNL1        0.2100
    156 H           3.7320   -1.2803    0.0000 H       1  UNL1        0.0647
    157 H           2.7924   -2.9826    0.0000 H       1  UNL1        0.0587
    158 H           3.1909   -3.6729    0.0000 H       1  UNL1        0.0587
    159 H           3.9650   -1.4703    0.0000 H       1  UNL1        0.0643
    160 H           6.0010   -0.9703    0.0000 H       1  UNL1        0.2101
    161 H          19.9993    4.0351    0.0000 H       1  UNL1        0.2095
    162 H           3.7320   -0.2803    0.0000 H       1  UNL1        0.2100
    163 H           2.0000   -1.9003    0.0000 H       1  UNL1        0.2100
@<TRIPOS>BOND
     1    40     1    1
     2    49     1    1
     3    41     2    1
     4    50     2    1
     5     3    43    2
     6     4    49    1
     7     4    56    1
     8     5    50    1
     9     5    57    1
    10    51     6    1
    11    63     6    1
    12    52     7    1
    13     7   128    1
    14    54     8    1
    15     8   134    1
    16    55     9    1
    17     9   135    1
    18    58    10    1
    19    10   142    1
    20    59    11    1
    21    11   143    1
    22    12    61    1
    23    70    12    1
    24    13    63    1
    25    13    68    1
    26    14    62    1
    27    14   145    1
    28    66    15    1
    29    15   150    1
    30    67    16    1
    31    16   154    1
    32    17    70    1
    33    17    74    1
    34    69    18    1
    35    18   155    1
    36    71    19    1
    37    19   160    1
    38    20    72    1
    39    20   161    1
    40    73    21    1
    41    21   162    1
    42    75    22    1
    43    22   163    1
    44    23    24    1
    45    23    25    1
    46    23    30    1
    47    23    38    1
    48    24    26    1
    49    24    32    1
    50    24    39    1
    51    25    27    1
    52    25    31    1
    53    25    76    1
    54    26    29    1
    55    26    33    1
    56    26    77    1
    57    27    28    1
    58    27    37    1
    59    27    43    1
    60    28    34    1
    61    28    36    1
    62    28    78    1
    63    29    35    1
    64    29    40    1
    65    29    79    1
    66    30    34    1
    67    30    80    1
    68    30    81    1
    69    31    33    1
    70    31    82    1
    71    31    83    1
    72    32    35    1
    73    32    84    1
    74    32    85    1
    75    33    86    1
    76    33    87    1
    77    34    88    1
    78    34    89    1
    79    35    90    1
    80    35    91    1
    81    36    41    1
    82    36    44    1
    83    36    45    1
    84    37    42    1
    85    37    92    1
    86    37    93    1
    87    38    94    1
    88    38    95    1
    89    38    96    1
    90    39    97    1
    91    39    98    1
    92    39    99    1
    93    40    46    1
    94    40    47    1
    95    41    42    1
    96    41   100    1
    97    42   101    1
    98    42   102    1
    99    43   103    1
   100    44   106    1
   101    44   107    1
   102    44   108    1
   103    45   104    1
   104    45   105    1
   105    45   109    1
   106    46    48    1
   107    46   110    1
   108    46   111    1
   109    47   112    1
   110    47   113    1
   111    47   114    1
   112    48    53    1
   113    48   115    1
   114    48   116    1
   115    49    52    1
   116    49   117    1
   117    50    51    1
   118    50   118    1
   119    51    55    1
   120    51   119    1
   121    52    54    1
   122    52   120    1
   123    53    60    2
   124    53   121    1
   125    54    58    1
   126    54   122    1
   127    55    59    1
   128    55   123    1
   129    56    58    1
   130    56    61    1
   131    56   124    1
   132    57    59    1
   133    57    62    1
   134    57   125    1
   135    58   126    1
   136    59   127    1
   137    60    64    1
   138    60    65    1
   139    61   129    1
   140    61   130    1
   141    62   131    1
   142    62   132    1
   143    63    66    1
   144    63   133    1
   145    64   137    1
   146    64   140    1
   147    64   141    1
   148    65   136    1
   149    65   138    1
   150    65   139    1
   151    66    67    1
   152    66   144    1
   153    67    69    1
   154    67   146    1
   155    68    69    1
   156    68    72    1
   157    68   147    1
   158    69   148    1
   159    70    71    1
   160    70   149    1
   161    71    73    1
   162    71   151    1
   163    72   152    1
   164    72   153    1
   165    73    75    1
   166    73   156    1
   167    74    75    1
   168    74   157    1
   169    74   158    1
   170    75   159    1
