@<TRIPOS>MOLECULE
IMPHY010730
 33 37 0 0 0
SMALL
GASTEIGER

@<TRIPOS>ATOM
      1 O           2.1771   -8.2284    0.0000 O.3     1  UNL1       -0.3158
      2 C           2.8325   -7.0696    0.0000 C.3     1  UNL1        0.3184
      3 O           2.3175   -6.0045    0.0000 O.3     1  UNL1       -0.4509
      4 C           2.3175   -4.6702    0.0000 C.ar    1  UNL1        0.1416
      5 C           3.4880   -4.0030    0.0000 C.ar    1  UNL1        0.0722
      6 C           4.6467   -4.6702    0.0000 C.3     1  UNL1        0.1475
      7 O           4.6467   -6.0045    0.0000 O.3     1  UNL1       -0.3450
      8 C           4.1669   -7.0696    0.0000 C.3     1  UNL1        0.2182
      9 C           4.8457   -8.2284    0.0000 C.3     1  UNL1        0.2178
     10 C           4.1669   -9.3988    0.0000 C.3     1  UNL1        0.2144
     11 C           2.8325   -9.3988    0.0000 C.3     1  UNL1        0.1845
     12 C           1.1588   -4.0030    0.0000 C.ar    1  UNL1        0.0507
     13 C           1.1588   -2.6804    0.0000 C.ar    1  UNL1        0.1935
     14 C           2.3175   -1.9898    0.0000 C.ar    1  UNL1        0.0506
     15 C           3.4880   -2.6804    0.0000 C.ar    1  UNL1        0.1390
     16 O           4.6467   -1.9898    0.0000 O.3     1  UNL1       -0.4750
     17 C           5.8055   -2.6804    0.0000 C.3     1  UNL1        0.1909
     18 C           5.8055   -4.0030    0.0000 C.3     1  UNL1        0.0825
     19 O           6.1918   -8.2284    0.0000 O.3     1  UNL1       -0.2175
     20 O           4.8457  -10.5576    0.0000 O.3     1  UNL1       -0.2176
     21 C           2.1771  -10.5576    0.0000 C.3     1  UNL1        0.2142
     22 O           2.8676  -11.7047    0.0000 O.3     1  UNL1       -0.2176
     23 C           0.0000   -4.6702    0.0000 C.3     1  UNL1        0.0376
     24 O           0.0000   -1.9898    0.0000 O.3     1  UNL1       -0.2870
     25 C           2.3175   -0.6555    0.0000 C.3     1  UNL1        0.0376
     26 C           6.9643   -1.9898    0.0000 C.ar    1  UNL1        0.0175
     27 C           6.9643   -0.6555    0.0000 C.ar    1  UNL1        0.0023
     28 C           8.1230    0.0000    0.0000 C.ar    1  UNL1        0.0367
     29 C           9.2818   -0.6555    0.0000 C.ar    1  UNL1        0.1387
     30 C           9.2818   -1.9898    0.0000 C.ar    1  UNL1        0.0367
     31 C           8.1230   -2.6804    0.0000 C.ar    1  UNL1        0.0023
     32 O          10.4406    0.0000    0.0000 O.3     1  UNL1       -0.4714
     33 C          11.5993   -0.6555    0.0000 C.3     1  UNL1        0.2525
@<TRIPOS>BOND
     1     1    11    1
     2     2     1    1
     3     2     3    1
     4     2     8    1
     5     3     4    1
     6     4     5   ar
     7     4    12   ar
     8     5    15   ar
     9     6     5    1
    10     6    18    1
    11     6     7    1
    12     8     7    1
    13     8     9    1
    14     9    10    1
    15     9    19    1
    16    10    11    1
    17    10    20    1
    18    11    21    1
    19    12    13   ar
    20    12    23    1
    21    13    14   ar
    22    13    24    1
    23    14    15   ar
    24    14    25    1
    25    15    16    1
    26    16    17    1
    27    17    18    1
    28    17    26    1
    29    21    22    1
    30    26    27   ar
    31    26    31   ar
    32    27    28   ar
    33    28    29   ar
    34    29    30   ar
    35    29    32    1
    36    30    31   ar
    37    32    33    1
