@<TRIPOS>MOLECULE
IMPHY006004
 32 35 0 0 0
SMALL
GASTEIGER

@<TRIPOS>ATOM
      1 O           2.9562   -1.9363    0.0000 O.3     1  UNL1       -0.4487
      2 O           4.4081   -2.7745    0.0000 O.3     1  UNL1       -0.4488
      3 O           6.7059    2.8819    0.0000 O.2     1  UNL1       -0.4666
      4 O           2.8718    0.3101    0.0000 O.3     1  UNL1       -0.4906
      5 O           6.3958   -1.7245    0.0000 O.3     1  UNL1       -0.5027
      6 O           7.2400   -0.1930    0.0000 O.2     1  UNL1       -0.2864
      7 O           3.7759    1.8070    0.0000 O.2     1  UNL1       -0.2864
      8 C           4.6419    0.3070    0.0000 C.ar    1  UNL1        0.0822
      9 C           5.5080   -0.1930    0.0000 C.ar    1  UNL1        0.0820
     10 C           6.3740    1.3070    0.0000 C.ar    1  UNL1        0.0738
     11 C           5.5080    1.8070    0.0000 C.ar    1  UNL1        0.0712
     12 C           3.7319   -0.1998    0.0000 C.ar    1  UNL1        0.1771
     13 C           6.3740    0.3070    0.0000 C.2     1  UNL1        0.2015
     14 C           3.7239   -1.2414    0.0000 C.ar    1  UNL1        0.2119
     15 C           4.6419    1.3070    0.0000 C.2     1  UNL1        0.2013
     16 C           5.5240   -1.2345    0.0000 C.ar    1  UNL1        0.1743
     17 C           4.6260   -1.7623    0.0000 C.ar    1  UNL1        0.2117
     18 C           7.1110    1.9741    0.0000 C.ar    1  UNL1        0.1133
     19 C           5.7172    2.7788    0.0000 C.ar    1  UNL1        0.1036
     20 C           3.3782   -2.8819    0.0000 C.3     1  UNL1        0.2336
     21 C           8.0895    1.7679    0.0000 C.3     1  UNL1       -0.0056
     22 C           2.0000   -0.1798    0.0000 C.3     1  UNL1        0.0790
     23 H           5.3031    3.2403    0.0000 H       1  UNL1        0.1037
     24 H           2.7886   -3.0736    0.0000 H       1  UNL1        0.1166
     25 H           3.5069   -3.4884    0.0000 H       1  UNL1        0.1166
     26 H           7.9616    1.1612    0.0000 H       1  UNL1        0.0308
     27 H           8.6962    1.6400    0.0000 H       1  UNL1        0.0308
     28 H           8.2174    2.3745    0.0000 H       1  UNL1        0.0308
     29 H           6.4029   -2.3444    0.0000 H       1  UNL1        0.2923
     30 H           1.6962    0.3607    0.0000 H       1  UNL1        0.0660
     31 H           1.4595   -0.4836    0.0000 H       1  UNL1        0.0660
     32 H           2.3038   -0.7203    0.0000 H       1  UNL1        0.0660
@<TRIPOS>BOND
     1     1    14    1
     2     1    20    1
     3     2    17    1
     4     2    20    1
     5     3    18   ar
     6     3    19   ar
     7     4    12    1
     8     4    22    1
     9     5    16    1
    10     5    29    1
    11     6    13    2
    12     7    15    2
    13     8     9   ar
    14     8    12   ar
    15     8    15    1
    16     9    13    1
    17     9    16   ar
    18    10    11   ar
    19    10    13    1
    20    10    18   ar
    21    11    15    1
    22    11    19   ar
    23    12    14   ar
    24    14    17   ar
    25    16    17   ar
    26    18    21    1
    27    19    23    1
    28    20    24    1
    29    20    25    1
    30    21    26    1
    31    21    27    1
    32    21    28    1
    33    22    30    1
    34    22    31    1
    35    22    32    1
