@<TRIPOS>MOLECULE
IMPHY005305
 127 133 0 0 0
SMALL
GASTEIGER

@<TRIPOS>ATOM
      1 O          18.9891    0.6491    0.0000 O.3     1  UNL1       -0.3850
      2 O          18.4251    0.9776    0.0000 O.3     1  UNL1       -0.3850
      3 O          17.7678   -2.7859    0.0000 O.3     1  UNL1       -0.3886
      4 O          16.0396   -1.7792    0.0000 O.3     1  UNL1       -0.3888
      5 O          20.9826   -0.2105    0.0000 O.3     1  UNL1       -0.3810
      6 O          13.2583    1.7838    0.0000 O.3     1  UNL1       -0.3477
      7 O          20.8697   -2.3802    0.0000 O.2     1  UNL1       -0.2946
      8 O          11.5263    1.7838    0.0000 O.3     1  UNL1       -0.3456
      9 O          11.5263   -1.2162    0.0000 O.3     1  UNL1       -0.3770
     10 O           9.7942   -0.2162    0.0000 O.3     1  UNL1       -0.3429
     11 O           8.9282    1.2838    0.0000 O.3     1  UNL1       -0.3456
     12 O           6.3301    1.7838    0.0000 O.3     1  UNL1       -0.3403
     13 O           6.3301   -0.2162    0.0000 O.3     1  UNL1       -0.3770
     14 O           5.4641    0.2838    0.0000 O.3     1  UNL1       -0.3431
     15 O           4.5981    2.7838    0.0000 O.3     1  UNL1       -0.3841
     16 O           2.8660    1.7838    0.0000 O.3     1  UNL1       -0.3744
     17 O           2.8660   -0.2162    0.0000 O.3     1  UNL1       -0.3866
     18 C          18.6435   -0.2893    0.0000 C.3     1  UNL1        0.1061
     19 C          18.6396   -1.2893    0.0000 C.3     1  UNL1        0.0309
     20 C          17.7794    0.2141    0.0000 C.3     1  UNL1        0.1047
     21 C          16.9114   -0.2826    0.0000 C.3     1  UNL1        0.0284
     22 C          16.0034    0.2278    0.0000 C.3     1  UNL1       -0.0029
     23 C          17.7717   -1.7859    0.0000 C.3     1  UNL1        0.0896
     24 C          16.9076   -1.2826    0.0000 C.3     1  UNL1        0.0880
     25 C          19.5909    0.0118    0.0000 C.3     1  UNL1        0.0152
     26 C          19.5846   -1.5976    0.0000 C.3     1  UNL1       -0.0064
     27 C          20.1714   -0.7952    0.0000 C.3     1  UNL1        0.1266
     28 C          17.7994    1.2555    0.0000 C.3     1  UNL1       -0.0024
     29 C          15.9994    1.2694    0.0000 C.2     1  UNL1       -0.0646
     30 C          18.6358   -2.2892    0.0000 C.3     1  UNL1       -0.0543
     31 C          15.0744   -0.3327    0.0000 C.3     1  UNL1       -0.0411
     32 C          16.9035    1.7867    0.0000 C.2     1  UNL1       -0.0813
     33 C          16.0072   -0.7722    0.0000 C.3     1  UNL1       -0.0554
     34 C          15.0661    1.8227    0.0000 C.3     1  UNL1       -0.0047
     35 C          14.1285    0.1989    0.0000 C.3     1  UNL1       -0.0254
     36 C          20.9781   -1.3861    0.0000 C.2     1  UNL1        0.1617
     37 C          14.1244    1.2838    0.0000 C.3     1  UNL1        0.0654
     38 C          21.8932   -0.9828    0.0000 C.3     1  UNL1       -0.0032
     39 C          12.3923    1.2838    0.0000 C.3     1  UNL1        0.1624
     40 C          12.3923    0.2838    0.0000 C.3     1  UNL1        0.0272
     41 C          11.5263   -0.2162    0.0000 C.3     1  UNL1        0.0915
     42 C          10.6603    1.2838    0.0000 C.3     1  UNL1        0.0875
     43 C          10.6603    0.2838    0.0000 C.3     1  UNL1        0.1137
     44 C           9.7942    1.7838    0.0000 C.3     1  UNL1       -0.0361
     45 C           8.9282    0.2838    0.0000 C.3     1  UNL1        0.1626
     46 C          12.3923   -1.7162    0.0000 C.3     1  UNL1        0.0369
     47 C           8.0622   -0.2162    0.0000 C.3     1  UNL1        0.0272
     48 C           7.1962    0.2838    0.0000 C.3     1  UNL1        0.0915
     49 C           7.1962    1.2838    0.0000 C.3     1  UNL1        0.1138
     50 C           8.0622    1.7838    0.0000 C.3     1  UNL1        0.0875
     51 C           8.0622    2.7838    0.0000 C.3     1  UNL1       -0.0361
     52 C           5.4641    1.2838    0.0000 C.3     1  UNL1        0.1883
     53 C           4.5981    1.7838    0.0000 C.3     1  UNL1        0.1344
     54 C           3.7320    1.2838    0.0000 C.3     1  UNL1        0.1170
     55 C           3.7320    0.2838    0.0000 C.3     1  UNL1        0.1097
     56 C           4.5981   -0.2162    0.0000 C.3     1  UNL1        0.0873
     57 C           6.3301   -1.2162    0.0000 C.3     1  UNL1        0.0369
     58 C           4.5981   -1.2162    0.0000 C.3     1  UNL1       -0.0361
     59 C           2.0000    1.2838    0.0000 C.3     1  UNL1        0.0370
     60 H          17.6459   -0.7104    0.0000 H       1  UNL1        0.0364
     61 H          17.0339   -2.2081    0.0000 H       1  UNL1        0.0625
     62 H          16.1731   -0.8547    0.0000 H       1  UNL1        0.0623
     63 H          20.1294    0.3190    0.0000 H       1  UNL1        0.0326
     64 H          19.3420    0.5797    0.0000 H       1  UNL1        0.0326
     65 H          19.3314   -2.1636    0.0000 H       1  UNL1        0.0304
     66 H          20.1208   -1.9089    0.0000 H       1  UNL1        0.0304
     67 H          18.4081    1.1377    0.0000 H       1  UNL1        0.0336
     68 H          18.0197    1.8351    0.0000 H       1  UNL1        0.0336
     69 H          18.0158   -2.2869    0.0000 H       1  UNL1        0.0237
     70 H          18.6334   -2.9092    0.0000 H       1  UNL1        0.0237
     71 H          19.2558   -2.2916    0.0000 H       1  UNL1        0.0237
     72 H          14.6826   -0.8133    0.0000 H       1  UNL1        0.0274
     73 H          15.4808   -0.8010    0.0000 H       1  UNL1        0.0274
     74 H          16.9082    2.4067    0.0000 H       1  UNL1        0.0573
     75 H          19.6001    0.7544    0.0000 H       1  UNL1        0.2103
     76 H          15.3872   -0.7746    0.0000 H       1  UNL1        0.0238
     77 H          16.0096   -1.3922    0.0000 H       1  UNL1        0.0238
     78 H          16.6272   -0.7698    0.0000 H       1  UNL1        0.0238
     79 H          18.5351    1.5878    0.0000 H       1  UNL1        0.2103
     80 H          15.4689    2.2940    0.0000 H       1  UNL1        0.0335
     81 H          14.6706    2.3002    0.0000 H       1  UNL1        0.0335
     82 H          13.5173    0.3026    0.0000 H       1  UNL1        0.0290
     83 H          13.9217   -0.3856    0.0000 H       1  UNL1        0.0290
     84 H          13.3891    0.8574    0.0000 H       1  UNL1        0.0600
     85 H          17.2297   -3.0938    0.0000 H       1  UNL1        0.2099
     86 H          16.0372   -2.3992    0.0000 H       1  UNL1        0.2099
     87 H          20.9202    0.4064    0.0000 H       1  UNL1        0.2107
     88 H          22.1432   -1.5502    0.0000 H       1  UNL1        0.0307
     89 H          22.4606   -0.7329    0.0000 H       1  UNL1        0.0307
     90 H          21.6432   -0.4155    0.0000 H       1  UNL1        0.0307
     91 H          13.1284    0.8588    0.0000 H       1  UNL1        0.0910
     92 H          12.6044   -0.2988    0.0000 H       1  UNL1        0.0340
     93 H          13.0029    0.3915    0.0000 H       1  UNL1        0.0340
     94 H          10.7902   -0.6412    0.0000 H       1  UNL1        0.0624
     95 H          10.6603    2.1338    0.0000 H       1  UNL1        0.0621
     96 H           9.9241    0.7088    0.0000 H       1  UNL1        0.0649
     97 H          10.1042    2.3208    0.0000 H       1  UNL1        0.0255
     98 H           9.2573    2.0938    0.0000 H       1  UNL1        0.0255
     99 H           9.4842    1.2469    0.0000 H       1  UNL1        0.0255
    100 H           8.9282   -0.5662    0.0000 H       1  UNL1        0.0910
    101 H          12.0823   -2.2531    0.0000 H       1  UNL1        0.0524
    102 H          12.9292   -2.0262    0.0000 H       1  UNL1        0.0524
    103 H          12.7023   -1.1792    0.0000 H       1  UNL1        0.0524
    104 H           7.6636   -0.6911    0.0000 H       1  UNL1        0.0340
    105 H           8.4607   -0.6911    0.0000 H       1  UNL1        0.0340
    106 H           6.4600    0.7088    0.0000 H       1  UNL1        0.0624
    107 H           7.1962    2.1338    0.0000 H       1  UNL1        0.0649
    108 H           8.7983    2.2088    0.0000 H       1  UNL1        0.0621
    109 H           8.6822    2.7838    0.0000 H       1  UNL1        0.0255
    110 H           8.0622    3.4038    0.0000 H       1  UNL1        0.0255
    111 H           7.4422    2.7838    0.0000 H       1  UNL1        0.0255
    112 H           5.4641    2.1338    0.0000 H       1  UNL1        0.0938
    113 H           3.8620    2.2088    0.0000 H       1  UNL1        0.0671
    114 H           2.9959    0.8588    0.0000 H       1  UNL1        0.0650
    115 H           3.7320   -0.5662    0.0000 H       1  UNL1        0.0646
    116 H           5.3342   -0.6412    0.0000 H       1  UNL1        0.0621
    117 H           5.7101   -1.2162    0.0000 H       1  UNL1        0.0524
    118 H           6.3301   -1.8362    0.0000 H       1  UNL1        0.0524
    119 H           6.9501   -1.2162    0.0000 H       1  UNL1        0.0524
    120 H           3.9781   -1.2162    0.0000 H       1  UNL1        0.0255
    121 H           4.5981   -1.8362    0.0000 H       1  UNL1        0.0255
    122 H           5.2181   -1.2162    0.0000 H       1  UNL1        0.0255
    123 H           4.0611    3.0938    0.0000 H       1  UNL1        0.2101
    124 H           2.8660   -0.8362    0.0000 H       1  UNL1        0.2100
    125 H           1.6900    1.8208    0.0000 H       1  UNL1        0.0524
    126 H           1.4631    0.9738    0.0000 H       1  UNL1        0.0524
    127 H           2.3100    0.7469    0.0000 H       1  UNL1        0.0524
@<TRIPOS>BOND
     1     1    18    1
     2     1    75    1
     3     2    20    1
     4     2    79    1
     5     3    23    1
     6     3    85    1
     7     4    24    1
     8     4    86    1
     9     5    27    1
    10     5    87    1
    11     6    37    1
    12     6    39    1
    13     7    36    2
    14     8    39    1
    15     8    42    1
    16     9    41    1
    17     9    46    1
    18    10    43    1
    19    10    45    1
    20    11    45    1
    21    11    50    1
    22    12    49    1
    23    12    52    1
    24    13    48    1
    25    13    57    1
    26    14    52    1
    27    14    56    1
    28    15    53    1
    29    15   123    1
    30    16    54    1
    31    16    59    1
    32    17    55    1
    33    17   124    1
    34    18    19    1
    35    18    20    1
    36    18    25    1
    37    19    23    1
    38    19    26    1
    39    19    30    1
    40    20    21    1
    41    20    28    1
    42    21    22    1
    43    21    24    1
    44    21    60    1
    45    22    29    1
    46    22    31    1
    47    22    33    1
    48    23    24    1
    49    23    61    1
    50    24    62    1
    51    25    27    1
    52    25    63    1
    53    25    64    1
    54    26    27    1
    55    26    65    1
    56    26    66    1
    57    27    36    1
    58    28    32    1
    59    28    67    1
    60    28    68    1
    61    29    32    2
    62    29    34    1
    63    30    69    1
    64    30    70    1
    65    30    71    1
    66    31    35    1
    67    31    72    1
    68    31    73    1
    69    32    74    1
    70    33    76    1
    71    33    77    1
    72    33    78    1
    73    34    37    1
    74    34    80    1
    75    34    81    1
    76    35    37    1
    77    35    82    1
    78    35    83    1
    79    36    38    1
    80    37    84    1
    81    38    88    1
    82    38    89    1
    83    38    90    1
    84    39    40    1
    85    39    91    1
    86    40    41    1
    87    40    92    1
    88    40    93    1
    89    41    43    1
    90    41    94    1
    91    42    43    1
    92    42    44    1
    93    42    95    1
    94    43    96    1
    95    44    97    1
    96    44    98    1
    97    44    99    1
    98    45    47    1
    99    45   100    1
   100    46   101    1
   101    46   102    1
   102    46   103    1
   103    47    48    1
   104    47   104    1
   105    47   105    1
   106    48    49    1
   107    48   106    1
   108    49    50    1
   109    49   107    1
   110    50    51    1
   111    50   108    1
   112    51   109    1
   113    51   110    1
   114    51   111    1
   115    52    53    1
   116    52   112    1
   117    53    54    1
   118    53   113    1
   119    54    55    1
   120    54   114    1
   121    55    56    1
   122    55   115    1
   123    56    58    1
   124    56   116    1
   125    57   117    1
   126    57   118    1
   127    57   119    1
   128    58   120    1
   129    58   121    1
   130    58   122    1
   131    59   125    1
   132    59   126    1
   133    59   127    1
