@<TRIPOS>MOLECULE
IMPHY015699
 42 42 0 0 0
SMALL
GASTEIGER

@<TRIPOS>ATOM
      1 O           5.4641    2.3450    0.0000 O.3     1  UNL1       -0.3885
      2 C           5.4641    0.3450    0.0000 C.3     1  UNL1        0.0057
      3 C           5.4641    1.3450    0.0000 C.3     1  UNL1        0.0667
      4 C           6.3301   -0.1550    0.0000 C.3     1  UNL1       -0.0405
      5 C           6.3301   -1.1550    0.0000 C.3     1  UNL1       -0.0314
      6 C           4.5981   -0.1550    0.0000 C.2     1  UNL1       -0.0819
      7 C           2.8660   -0.1550    0.0000 C.3     1  UNL1       -0.0254
      8 C           2.8660   -1.1550    0.0000 C.3     1  UNL1       -0.0436
      9 C           6.4641    1.3450    0.0000 C.3     1  UNL1       -0.0358
     10 C           4.4641    1.3450    0.0000 C.3     1  UNL1       -0.0358
     11 C           3.7320    0.3450    0.0000 C.2     1  UNL1       -0.0847
     12 C           5.4641   -1.6550    0.0000 C.2     1  UNL1       -0.0765
     13 C           3.7320   -1.6550    0.0000 C.3     1  UNL1       -0.0340
     14 C           4.5981   -1.1550    0.0000 C.2     1  UNL1       -0.0850
     15 C           2.0000    0.3450    0.0000 C.3     1  UNL1       -0.0589
     16 C           5.4641   -2.6550    0.0000 C.3     1  UNL1       -0.0438
     17 H           6.2002    0.7700    0.0000 H       1  UNL1        0.0371
     18 H           6.9407   -0.2627    0.0000 H       1  UNL1        0.0275
     19 H           6.5422    0.4276    0.0000 H       1  UNL1        0.0275
     20 H           6.5422   -1.7376    0.0000 H       1  UNL1        0.0310
     21 H           6.9407   -1.0473    0.0000 H       1  UNL1        0.0310
     22 H           4.1998   -0.6301    0.0000 H       1  UNL1        0.0573
     23 H           2.8660    0.4650    0.0000 H       1  UNL1        0.0340
     24 H           2.2554   -1.0473    0.0000 H       1  UNL1        0.0274
     25 H           2.6540   -1.7376    0.0000 H       1  UNL1        0.0274
     26 H           6.4641    0.7250    0.0000 H       1  UNL1        0.0257
     27 H           7.0841    1.3450    0.0000 H       1  UNL1        0.0257
     28 H           6.4641    1.9650    0.0000 H       1  UNL1        0.0257
     29 H           4.4641    1.9650    0.0000 H       1  UNL1        0.0257
     30 H           3.8441    1.3450    0.0000 H       1  UNL1        0.0257
     31 H           4.4641    0.7250    0.0000 H       1  UNL1        0.0257
     32 H           3.7320    0.9650    0.0000 H       1  UNL1        0.0572
     33 H           3.3335   -2.1300    0.0000 H       1  UNL1        0.0308
     34 H           4.1306   -2.1300    0.0000 H       1  UNL1        0.0308
     35 H           4.9966   -0.6801    0.0000 H       1  UNL1        0.0572
     36 H           2.3100    0.8819    0.0000 H       1  UNL1        0.0235
     37 H           1.4631    0.6550    0.0000 H       1  UNL1        0.0235
     38 H           1.6900   -0.1919    0.0000 H       1  UNL1        0.0235
     39 H           6.0010    2.6550    0.0000 H       1  UNL1        0.2102
     40 H           4.8441   -2.6550    0.0000 H       1  UNL1        0.0274
     41 H           5.4641   -3.2750    0.0000 H       1  UNL1        0.0274
     42 H           6.0841   -2.6550    0.0000 H       1  UNL1        0.0274
@<TRIPOS>BOND
     1     1     3    1
     2     1    39    1
     3     2     3    1
     4     2     4    1
     5     2     6    1
     6     2    17    1
     7     3     9    1
     8     3    10    1
     9     4     5    1
    10     4    18    1
    11     4    19    1
    12     5    12    1
    13     5    20    1
    14     5    21    1
    15     6    11    2
    16     6    22    1
    17     7     8    1
    18     7    11    1
    19     7    15    1
    20     7    23    1
    21     8    13    1
    22     8    24    1
    23     8    25    1
    24     9    26    1
    25     9    27    1
    26     9    28    1
    27    10    29    1
    28    10    30    1
    29    10    31    1
    30    11    32    1
    31    12    14    2
    32    12    16    1
    33    13    14    1
    34    13    33    1
    35    13    34    1
    36    14    35    1
    37    15    36    1
    38    15    37    1
    39    15    38    1
    40    16    40    1
    41    16    41    1
    42    16    42    1
