@<TRIPOS>MOLECULE
IMPHY002726
 18 19 0 0 0
SMALL
GASTEIGER

@<TRIPOS>ATOM
      1 O           2.5369    1.0000    0.0000 O.3     1  UNL1       -0.5067
      2 N           6.0290   -1.0347    0.0000 N.ar    1  UNL1       -0.2550
      3 C           5.1350    0.5000    0.0000 C.ar    1  UNL1        0.0038
      4 C           5.1350   -0.5000    0.0000 C.ar    1  UNL1        0.0712
      5 C           4.2690    1.0000    0.0000 C.ar    1  UNL1       -0.0110
      6 C           4.2690   -1.0000    0.0000 C.ar    1  UNL1       -0.0323
      7 C           6.0290    1.0347    0.0000 C.ar    1  UNL1       -0.0510
      8 C           3.4030    0.5000    0.0000 C.ar    1  UNL1        0.1176
      9 C           3.4030   -0.5000    0.0000 C.ar    1  UNL1       -0.0181
     10 C           6.9350    0.5208    0.0000 C.ar    1  UNL1       -0.0430
     11 C           6.9350   -0.5208    0.0000 C.ar    1  UNL1        0.0283
     12 H           4.2690    1.6200    0.0000 H       1  UNL1        0.0661
     13 H           4.2690   -1.6200    0.0000 H       1  UNL1        0.0640
     14 H           6.0218    1.6546    0.0000 H       1  UNL1        0.0625
     15 H           2.8660   -0.8100    0.0000 H       1  UNL1        0.0655
     16 H           7.4708    0.8329    0.0000 H       1  UNL1        0.0633
     17 H           7.4708   -0.8329    0.0000 H       1  UNL1        0.0830
     18 H           2.0000    0.6900    0.0000 H       1  UNL1        0.2921
@<TRIPOS>BOND
     1     1     8    1
     2     1    18    1
     3     2     4   ar
     4     2    11   ar
     5     3     4   ar
     6     3     5   ar
     7     3     7   ar
     8     4     6   ar
     9     5     8   ar
    10     5    12    1
    11     6     9   ar
    12     6    13    1
    13     7    10   ar
    14     7    14    1
    15     8     9   ar
    16     9    15    1
    17    10    11   ar
    18    10    16    1
    19    11    17    1
