@<TRIPOS>MOLECULE
IMPHY017464
 24 24 0 0 0
SMALL
GASTEIGER

@<TRIPOS>ATOM
      1 O           2.8660   -2.2500    0.0000 O.2     1  UNL1       -0.2974
      2 C           2.8660    0.7500    0.0000 C.3     1  UNL1       -0.0196
      3 C           3.7320    0.2500    0.0000 C.3     1  UNL1       -0.0398
      4 C           2.0000    0.2500    0.0000 C.3     1  UNL1       -0.0398
      5 C           3.7320   -0.7500    0.0000 C.3     1  UNL1        0.0064
      6 C           2.0000   -0.7500    0.0000 C.3     1  UNL1        0.0064
      7 C           2.8660   -1.2500    0.0000 C.2     1  UNL1        0.1334
      8 C           2.8660    1.7500    0.0000 C.2     1  UNL1       -0.0766
      9 C           3.7320    2.2500    0.0000 C.3     1  UNL1       -0.0438
     10 C           2.0000    2.2500    0.0000 C.2     1  UNL1       -0.0994
     11 H           3.4030    1.0600    0.0000 H       1  UNL1        0.0346
     12 H           4.3426    0.1423    0.0000 H       1  UNL1        0.0275
     13 H           3.9441    0.8326    0.0000 H       1  UNL1        0.0275
     14 H           1.7880    0.8326    0.0000 H       1  UNL1        0.0275
     15 H           1.3894    0.1423    0.0000 H       1  UNL1        0.0275
     16 H           3.9441   -1.3326    0.0000 H       1  UNL1        0.0342
     17 H           4.3426   -0.6423    0.0000 H       1  UNL1        0.0342
     18 H           1.3894   -0.6423    0.0000 H       1  UNL1        0.0342
     19 H           1.7880   -1.3326    0.0000 H       1  UNL1        0.0342
     20 H           4.0420    1.7131    0.0000 H       1  UNL1        0.0274
     21 H           4.2690    2.5600    0.0000 H       1  UNL1        0.0274
     22 H           3.4220    2.7869    0.0000 H       1  UNL1        0.0274
     23 H           2.0000    2.8700    0.0000 H       1  UNL1        0.0534
     24 H           1.4631    1.9400    0.0000 H       1  UNL1        0.0534
@<TRIPOS>BOND
     1     1     7    2
     2     2     3    1
     3     2     4    1
     4     2     8    1
     5     2    11    1
     6     3     5    1
     7     3    12    1
     8     3    13    1
     9     4     6    1
    10     4    14    1
    11     4    15    1
    12     5     7    1
    13     5    16    1
    14     5    17    1
    15     6     7    1
    16     6    18    1
    17     6    19    1
    18     8     9    1
    19     8    10    2
    20     9    20    1
    21     9    21    1
    22     9    22    1
    23    10    23    1
    24    10    24    1
