@<TRIPOS>MOLECULE
IMPHY002372
 31 35 0 0 0
SMALL
GASTEIGER

@<TRIPOS>ATOM
      1 C        2514.8900 2519.4000    0.0000 C.3     1  UNL1        0.0003
      2 C        2514.8900 2479.4000    0.0000 C.3     1  UNL1        0.0038
      3 C        2480.3500 2499.5500    0.0000 C.3     1  UNL1        0.0043
      4 C        2480.3500 2459.5500    0.0000 C.3     1  UNL1        0.0003
      5 C        2445.8100 2479.4000    0.0000 C.3     1  UNL1        0.0003
      6 C        2445.8100 2439.1100    0.0000 C.3     1  UNL1        0.0000
      7 C        2480.3500 2418.9600    0.0000 C.3     1  UNL1        0.0000
      8 C        2514.8900 2439.1100    0.0000 C.3     1  UNL1        0.0003
      9 C        2445.8100 2399.1100    0.0000 C.3     1  UNL1        0.0000
     10 C        2376.6300 2439.1100    0.0000 C.3     1  UNL1        0.0000
     11 C        2376.6300 2479.4000    0.0000 C.3     1  UNL1        0.0000
     12 C        2411.1700 2499.5500    0.0000 C.3     1  UNL1        0.0000
     13 C        2341.9900 2419.0600    0.0000 C.3     1  UNL1        0.0000
     14 C        2307.3400 2439.1100    0.0000 C.3     1  UNL1        0.0000
     15 C        2341.9900 2379.0600    0.0000 C.3     1  UNL1        0.0000
     16 C        2480.3500 2539.8500    0.0000 C.3     1  UNL1        0.0254
     17 C        2514.8900 2560.0000    0.0000 C.2     1  UNL1       -0.0346
     18 C        2549.4300 2539.8500    0.0000 C.2     1  UNL1       -0.0492
     19 C        2549.4300 2499.5500    0.0000 C.3     1  UNL1        0.0205
     20 C        2584.2700 2480.0000    0.0000 C.3     1  UNL1        0.0369
     21 C        2619.1100 2500.3500    0.0000 C.3     1  UNL1        0.1525
     22 C        2619.1100 2540.3500    0.0000 C.3     1  UNL1        0.0339
     23 C        2584.2700 2560.0000    0.0000 C.3     1  UNL1        0.0172
     24 C        2584.2700 2520.0000    0.0000 C.3     1  UNL1        0.0041
     25 C        2583.7700 2600.3000    0.0000 C.3     1  UNL1        0.0038
     26 C        2618.0100 2620.9400    0.0000 C.3     1  UNL1        0.0003
     27 C        2652.8500 2601.1900    0.0000 C.3     1  UNL1        0.0001
     28 C        2653.3500 2560.8900    0.0000 C.3     1  UNL1        0.0026
     29 C        2667.7400 2523.5700    0.0000 C.3     1  UNL1        0.0001
     30 C        2692.6600 2568.5400    0.0000 C.3     1  UNL1        0.0001
     31 O        2653.7500 2480.4000    0.0000 O.3     1  UNL1       -0.2231
@<TRIPOS>BOND
     1     2     1    1
     2     2     3    1
     3     2     8    1
     4     2    19    1
     5     3     4    1
     6     3     5    1
     7     3    16    1
     8     5     6    1
     9     5    12    1
    10     6     9    1
    11     6    10    1
    12     7     6    1
    13     8     7    1
    14    10    11    1
    15    10    13    1
    16    12    11    1
    17    13    14    1
    18    13    15    1
    19    16    17    1
    20    18    17    2
    21    18    23    1
    22    19    18    1
    23    19    20    1
    24    20    21    1
    25    21    22    1
    26    21    31    1
    27    22    28    1
    28    23    22    1
    29    23    24    1
    30    23    25    1
    31    25    26    1
    32    26    27    1
    33    28    27    1
    34    28    29    1
    35    28    30    1
