@<TRIPOS>MOLECULE
IMPHY001891
 130 136 0 0 0
SMALL
GASTEIGER

@<TRIPOS>ATOM
      1 O          18.9891    0.6929    0.0000 O.3     1  UNL1       -0.3850
      2 O          18.4251    1.0214    0.0000 O.3     1  UNL1       -0.3854
      3 O          19.2736   -2.5042    0.0000 O.3     1  UNL1       -0.3853
      4 O          17.7678   -2.7421    0.0000 O.3     1  UNL1       -0.3910
      5 O          21.3068   -1.7385    0.0000 O.3     1  UNL1       -0.3892
      6 O          13.2583    1.8276    0.0000 O.3     1  UNL1       -0.3480
      7 O          11.5263    1.8276    0.0000 O.3     1  UNL1       -0.3456
      8 O          11.5263   -1.1724    0.0000 O.3     1  UNL1       -0.3770
      9 O           9.7942   -0.1724    0.0000 O.3     1  UNL1       -0.3429
     10 O           8.9282    1.3276    0.0000 O.3     1  UNL1       -0.3456
     11 O           6.3301   -0.1724    0.0000 O.3     1  UNL1       -0.3770
     12 O           6.3301    1.8276    0.0000 O.3     1  UNL1       -0.3403
     13 O           5.4641    0.3276    0.0000 O.3     1  UNL1       -0.3431
     14 O           4.5981    2.8276    0.0000 O.3     1  UNL1       -0.3841
     15 O           2.8660    1.8276    0.0000 O.3     1  UNL1       -0.3744
     16 O           2.8660   -0.1724    0.0000 O.3     1  UNL1       -0.3866
     17 C          18.6435   -0.2455    0.0000 C.3     1  UNL1        0.1053
     18 C          17.7794    0.2579    0.0000 C.3     1  UNL1        0.0987
     19 C          18.6396   -1.2455    0.0000 C.3     1  UNL1        0.0563
     20 C          16.9114   -0.2388    0.0000 C.3     1  UNL1       -0.0014
     21 C          16.0034    0.2716    0.0000 C.3     1  UNL1       -0.0235
     22 C          19.5846   -1.5538    0.0000 C.3     1  UNL1        0.1020
     23 C          17.7717   -1.7421    0.0000 C.3     1  UNL1        0.0664
     24 C          16.9076   -1.2388    0.0000 C.3     1  UNL1       -0.0201
     25 C          15.9994    1.3132    0.0000 C.3     1  UNL1       -0.0329
     26 C          19.5909    0.0556    0.0000 C.3     1  UNL1       -0.0179
     27 C          17.7994    1.2993    0.0000 C.3     1  UNL1       -0.0207
     28 C          20.1714   -0.7514    0.0000 C.3     1  UNL1       -0.0182
     29 C          16.9035    1.8305    0.0000 C.3     1  UNL1       -0.0469
     30 C          15.0744   -0.2889    0.0000 C.3     1  UNL1       -0.0447
     31 C          18.6358   -2.2454    0.0000 C.3     1  UNL1       -0.0517
     32 C          15.0661    1.8665    0.0000 C.3     1  UNL1       -0.0232
     33 C          16.0072   -0.7284    0.0000 C.3     1  UNL1       -0.0590
     34 C          20.3924   -2.1433    0.0000 C.3     1  UNL1        0.0818
     35 C          14.1285    0.2426    0.0000 C.3     1  UNL1       -0.0260
     36 C          14.1244    1.3276    0.0000 C.3     1  UNL1        0.0620
     37 C          20.2858   -3.1376    0.0000 C.3     1  UNL1       -0.0362
     38 C          12.3923    1.3276    0.0000 C.3     1  UNL1        0.1624
     39 C          12.3923    0.3276    0.0000 C.3     1  UNL1        0.0272
     40 C          11.5263   -0.1724    0.0000 C.3     1  UNL1        0.0915
     41 C          10.6603    1.3276    0.0000 C.3     1  UNL1        0.0875
     42 C          10.6603    0.3276    0.0000 C.3     1  UNL1        0.1137
     43 C           9.7942    1.8276    0.0000 C.3     1  UNL1       -0.0361
     44 C           8.9282    0.3276    0.0000 C.3     1  UNL1        0.1626
     45 C          12.3923   -1.6724    0.0000 C.3     1  UNL1        0.0369
     46 C           8.0622   -0.1724    0.0000 C.3     1  UNL1        0.0272
     47 C           7.1962    0.3276    0.0000 C.3     1  UNL1        0.0915
     48 C           8.0622    1.8276    0.0000 C.3     1  UNL1        0.0875
     49 C           7.1962    1.3276    0.0000 C.3     1  UNL1        0.1138
     50 C           8.0622    2.8276    0.0000 C.3     1  UNL1       -0.0361
     51 C           5.4641    1.3276    0.0000 C.3     1  UNL1        0.1883
     52 C           4.5981    1.8276    0.0000 C.3     1  UNL1        0.1344
     53 C           6.3301   -1.1724    0.0000 C.3     1  UNL1        0.0369
     54 C           3.7320    1.3276    0.0000 C.3     1  UNL1        0.1170
     55 C           4.5981   -0.1724    0.0000 C.3     1  UNL1        0.0873
     56 C           3.7320    0.3276    0.0000 C.3     1  UNL1        0.1097
     57 C           4.5981   -1.1724    0.0000 C.3     1  UNL1       -0.0361
     58 C           2.0000    1.3276    0.0000 C.3     1  UNL1        0.0370
     59 H          17.6459   -0.6666    0.0000 H       1  UNL1        0.0336
     60 H          17.2335   -2.0500    0.0000 H       1  UNL1        0.0601
     61 H          16.2974   -1.1288    0.0000 H       1  UNL1        0.0294
     62 H          16.6933   -1.8206    0.0000 H       1  UNL1        0.0294
     63 H          16.0059    2.1632    0.0000 H       1  UNL1        0.0307
     64 H          20.1294    0.3628    0.0000 H       1  UNL1        0.0295
     65 H          19.3420    0.6235    0.0000 H       1  UNL1        0.0295
     66 H          18.4081    1.1815    0.0000 H       1  UNL1        0.0294
     67 H          18.0197    1.8789    0.0000 H       1  UNL1        0.0294
     68 H          20.6306   -1.1679    0.0000 H       1  UNL1        0.0295
     69 H          20.6338   -0.3384    0.0000 H       1  UNL1        0.0295
     70 H          17.3062    2.3019    0.0000 H       1  UNL1        0.0269
     71 H          16.5080    2.3080    0.0000 H       1  UNL1        0.0269
     72 H          14.6826   -0.7695    0.0000 H       1  UNL1        0.0271
     73 H          15.4808   -0.7572    0.0000 H       1  UNL1        0.0271
     74 H          18.0158   -2.2431    0.0000 H       1  UNL1        0.0238
     75 H          18.6334   -2.8654    0.0000 H       1  UNL1        0.0238
     76 H          19.2558   -2.2478    0.0000 H       1  UNL1        0.0238
     77 H          15.4689    2.3378    0.0000 H       1  UNL1        0.0293
     78 H          14.6706    2.3440    0.0000 H       1  UNL1        0.0293
     79 H          15.3872   -0.7308    0.0000 H       1  UNL1        0.0235
     80 H          16.0096   -1.3484    0.0000 H       1  UNL1        0.0235
     81 H          16.6272   -0.7260    0.0000 H       1  UNL1        0.0235
     82 H          20.4585   -1.5269    0.0000 H       1  UNL1        0.0619
     83 H          13.5173    0.3464    0.0000 H       1  UNL1        0.0290
     84 H          13.9217   -0.3418    0.0000 H       1  UNL1        0.0290
     85 H          19.6001    0.7982    0.0000 H       1  UNL1        0.2103
     86 H          18.5351    1.6316    0.0000 H       1  UNL1        0.2103
     87 H          13.5880    1.0166    0.0000 H       1  UNL1        0.0597
     88 H          19.6875   -2.9659    0.0000 H       1  UNL1        0.2103
     89 H          17.2297   -3.0500    0.0000 H       1  UNL1        0.2098
     90 H          19.6693   -3.0715    0.0000 H       1  UNL1        0.0255
     91 H          20.2197   -3.7541    0.0000 H       1  UNL1        0.0255
     92 H          20.9022   -3.2038    0.0000 H       1  UNL1        0.0255
     93 H          21.8076   -2.1040    0.0000 H       1  UNL1        0.2099
     94 H          12.9292    1.0176    0.0000 H       1  UNL1        0.0910
     95 H          12.6044   -0.2550    0.0000 H       1  UNL1        0.0340
     96 H          13.0029    0.4353    0.0000 H       1  UNL1        0.0340
     97 H          10.9893   -0.4824    0.0000 H       1  UNL1        0.0624
     98 H          10.6603    1.9476    0.0000 H       1  UNL1        0.0621
     99 H          10.1233    0.6376    0.0000 H       1  UNL1        0.0649
    100 H          10.1042    2.3646    0.0000 H       1  UNL1        0.0255
    101 H           9.2573    2.1376    0.0000 H       1  UNL1        0.0255
    102 H           9.4842    1.2907    0.0000 H       1  UNL1        0.0255
    103 H           8.9282   -0.2924    0.0000 H       1  UNL1        0.0910
    104 H          12.0823   -2.2093    0.0000 H       1  UNL1        0.0524
    105 H          12.9292   -1.9824    0.0000 H       1  UNL1        0.0524
    106 H          12.7023   -1.1354    0.0000 H       1  UNL1        0.0524
    107 H           7.6636   -0.6473    0.0000 H       1  UNL1        0.0340
    108 H           8.4607   -0.6473    0.0000 H       1  UNL1        0.0340
    109 H           6.6592    0.6376    0.0000 H       1  UNL1        0.0624
    110 H           8.5991    2.1376    0.0000 H       1  UNL1        0.0621
    111 H           7.1962    1.9476    0.0000 H       1  UNL1        0.0649
    112 H           8.6822    2.8276    0.0000 H       1  UNL1        0.0255
    113 H           8.0622    3.4476    0.0000 H       1  UNL1        0.0255
    114 H           7.4422    2.8276    0.0000 H       1  UNL1        0.0255
    115 H           5.4641    1.9476    0.0000 H       1  UNL1        0.0938
    116 H           4.0611    2.1376    0.0000 H       1  UNL1        0.0671
    117 H           5.7101   -1.1724    0.0000 H       1  UNL1        0.0524
    118 H           6.3301   -1.7924    0.0000 H       1  UNL1        0.0524
    119 H           6.9501   -1.1724    0.0000 H       1  UNL1        0.0524
    120 H           3.1951    1.0176    0.0000 H       1  UNL1        0.0650
    121 H           3.7320   -0.2924    0.0000 H       1  UNL1        0.0646
    122 H           5.1350   -0.4824    0.0000 H       1  UNL1        0.0621
    123 H           3.9781   -1.1724    0.0000 H       1  UNL1        0.0255
    124 H           4.5981   -1.7924    0.0000 H       1  UNL1        0.0255
    125 H           5.2181   -1.1724    0.0000 H       1  UNL1        0.0255
    126 H           4.0611    3.1376    0.0000 H       1  UNL1        0.2101
    127 H           2.8660   -0.7924    0.0000 H       1  UNL1        0.2100
    128 H           1.6900    1.8646    0.0000 H       1  UNL1        0.0524
    129 H           1.4631    1.0176    0.0000 H       1  UNL1        0.0524
    130 H           2.3100    0.7907    0.0000 H       1  UNL1        0.0524
@<TRIPOS>BOND
     1    17     1    1
     2     1    85    1
     3    18     2    1
     4     2    86    1
     5    22     3    1
     6     3    88    1
     7    23     4    1
     8     4    89    1
     9    34     5    1
    10     5    93    1
    11    36     6    1
    12    38     6    1
    13     7    38    1
    14     7    41    1
    15    40     8    1
    16     8    45    1
    17    42     9    1
    18    44     9    1
    19    10    44    1
    20    10    48    1
    21    47    11    1
    22    11    53    1
    23    49    12    1
    24    51    12    1
    25    13    51    1
    26    13    55    1
    27    52    14    1
    28    14   126    1
    29    54    15    1
    30    15    58    1
    31    56    16    1
    32    16   127    1
    33    17    18    1
    34    17    19    1
    35    17    26    1
    36    18    20    1
    37    18    27    1
    38    19    22    1
    39    19    23    1
    40    19    31    1
    41    20    21    1
    42    20    24    1
    43    20    59    1
    44    21    25    1
    45    21    30    1
    46    21    33    1
    47    22    28    1
    48    22    34    1
    49    23    24    1
    50    23    60    1
    51    24    61    1
    52    24    62    1
    53    25    29    1
    54    25    32    1
    55    25    63    1
    56    26    28    1
    57    26    64    1
    58    26    65    1
    59    27    29    1
    60    27    66    1
    61    27    67    1
    62    28    68    1
    63    28    69    1
    64    29    70    1
    65    29    71    1
    66    30    35    1
    67    30    72    1
    68    30    73    1
    69    31    74    1
    70    31    75    1
    71    31    76    1
    72    32    36    1
    73    32    77    1
    74    32    78    1
    75    33    79    1
    76    33    80    1
    77    33    81    1
    78    34    37    1
    79    34    82    1
    80    35    36    1
    81    35    83    1
    82    35    84    1
    83    36    87    1
    84    37    90    1
    85    37    91    1
    86    37    92    1
    87    38    39    1
    88    38    94    1
    89    39    40    1
    90    39    95    1
    91    39    96    1
    92    40    42    1
    93    40    97    1
    94    41    42    1
    95    41    43    1
    96    41    98    1
    97    42    99    1
    98    43   100    1
    99    43   101    1
   100    43   102    1
   101    44    46    1
   102    44   103    1
   103    45   104    1
   104    45   105    1
   105    45   106    1
   106    46    47    1
   107    46   107    1
   108    46   108    1
   109    47    49    1
   110    47   109    1
   111    48    49    1
   112    48    50    1
   113    48   110    1
   114    49   111    1
   115    50   112    1
   116    50   113    1
   117    50   114    1
   118    51    52    1
   119    51   115    1
   120    52    54    1
   121    52   116    1
   122    53   117    1
   123    53   118    1
   124    53   119    1
   125    54    56    1
   126    54   120    1
   127    55    56    1
   128    55    57    1
   129    55   122    1
   130    56   121    1
   131    57   123    1
   132    57   124    1
   133    57   125    1
   134    58   128    1
   135    58   129    1
   136    58   130    1
