@<TRIPOS>MOLECULE
IMPHY002870
 52 54 0 0 0
SMALL
GASTEIGER

@<TRIPOS>ATOM
      1 O           6.3981   -1.8314    0.0000 O.3     1  UNL1       -0.3870
      2 O           7.3022   -0.3346    0.0000 O.2     1  UNL1       -0.5060
      3 O           3.7782    1.7000    0.0000 O.2     1  UNL1       -0.2835
      4 O           5.5442    2.7378    0.0000 O.2     1  UNL1       -0.2834
      5 C           3.8000   -1.3314    0.0000 C.3     1  UNL1       -0.0237
      6 C           3.8000   -0.3314    0.0000 C.3     1  UNL1        0.0006
      7 C           2.9061   -1.8661    0.0000 C.3     1  UNL1       -0.0312
      8 C           2.9061    0.2032    0.0000 C.3     1  UNL1       -0.0432
      9 C           4.6660   -1.8314    0.0000 C.3     1  UNL1       -0.0184
     10 C           2.0000   -1.3522    0.0000 C.3     1  UNL1       -0.0476
     11 C           2.0000   -0.3106    0.0000 C.3     1  UNL1       -0.0518
     12 C           4.6660    0.1686    0.0000 C.2     1  UNL1        0.0184
     13 C           5.5321   -1.3314    0.0000 C.3     1  UNL1        0.0843
     14 C           3.8000    0.6686    0.0000 C.3     1  UNL1       -0.0551
     15 C           5.5321   -0.3314    0.0000 C.2     1  UNL1        0.0301
     16 C           2.4161   -2.7378    0.0000 C.3     1  UNL1       -0.0595
     17 C           3.4160   -2.7263    0.0000 C.3     1  UNL1       -0.0595
     18 C           4.6500    1.2101    0.0000 C.2     1  UNL1        0.2298
     19 C           6.4421    0.1754    0.0000 C.2     1  UNL1        0.1300
     20 C           6.4501    1.2170    0.0000 C.2     1  UNL1        0.0474
     21 C           5.5480    1.7378    0.0000 C.2     1  UNL1        0.2324
     22 C           7.3180    1.7137    0.0000 C.3     1  UNL1       -0.0143
     23 C           7.3219    2.7137    0.0000 C.3     1  UNL1       -0.0584
     24 C           8.1821    1.2104    0.0000 C.3     1  UNL1       -0.0584
     25 H           3.8066   -2.1814    0.0000 H       1  UNL1        0.0315
     26 H           3.3107    0.6730    0.0000 H       1  UNL1        0.0274
     27 H           2.5124    0.6823    0.0000 H       1  UNL1        0.0274
     28 H           4.2675   -2.3064    0.0000 H       1  UNL1        0.0296
     29 H           5.0646   -2.3064    0.0000 H       1  UNL1        0.0296
     30 H           1.3891   -1.2461    0.0000 H       1  UNL1        0.0271
     31 H           1.7909   -1.9359    0.0000 H       1  UNL1        0.0271
     32 H           1.7909    0.2731    0.0000 H       1  UNL1        0.0266
     33 H           1.3891   -0.4167    0.0000 H       1  UNL1        0.0266
     34 H           5.5321   -1.9514    0.0000 H       1  UNL1        0.0645
     35 H           4.4200    0.6686    0.0000 H       1  UNL1        0.0238
     36 H           3.8000    1.2886    0.0000 H       1  UNL1        0.0238
     37 H           3.1800    0.6686    0.0000 H       1  UNL1        0.0238
     38 H           1.8756   -2.4341    0.0000 H       1  UNL1        0.0235
     39 H           2.1123   -3.2783    0.0000 H       1  UNL1        0.0235
     40 H           2.9566   -3.0416    0.0000 H       1  UNL1        0.0235
     41 H           2.8827   -3.0425    0.0000 H       1  UNL1        0.0235
     42 H           3.7322   -3.2596    0.0000 H       1  UNL1        0.0235
     43 H           3.9494   -2.4101    0.0000 H       1  UNL1        0.0235
     44 H           6.3981   -2.4514    0.0000 H       1  UNL1        0.2102
     45 H           7.3156    1.0937    0.0000 H       1  UNL1        0.0346
     46 H           7.8427   -0.0308    0.0000 H       1  UNL1        0.2922
     47 H           7.9419    2.7113    0.0000 H       1  UNL1        0.0235
     48 H           7.3243    3.3337    0.0000 H       1  UNL1        0.0235
     49 H           6.7019    2.7161    0.0000 H       1  UNL1        0.0235
     50 H           7.8701    0.6746    0.0000 H       1  UNL1        0.0235
     51 H           8.7179    0.8983    0.0000 H       1  UNL1        0.0235
     52 H           8.4942    1.7461    0.0000 H       1  UNL1        0.0235
@<TRIPOS>BOND
     1    13     1    1
     2     1    44    1
     3     2    19    1
     4     2    46    1
     5     3    18    2
     6     4    21    2
     7     5     6    1
     8     5     7    1
     9     5     9    1
    10     5    25    1
    11     6     8    1
    12     6    12    1
    13     6    14    1
    14     7    10    1
    15     7    16    1
    16     7    17    1
    17     8    11    1
    18     8    26    1
    19     8    27    1
    20     9    13    1
    21     9    28    1
    22     9    29    1
    23    10    11    1
    24    10    30    1
    25    10    31    1
    26    11    32    1
    27    11    33    1
    28    12    15    2
    29    12    18    1
    30    13    15    1
    31    13    34    1
    32    14    35    1
    33    14    36    1
    34    14    37    1
    35    15    19    1
    36    16    38    1
    37    16    39    1
    38    16    40    1
    39    17    41    1
    40    17    42    1
    41    17    43    1
    42    18    21    1
    43    19    20    2
    44    20    21    1
    45    20    22    1
    46    22    23    1
    47    22    24    1
    48    22    45    1
    49    23    47    1
    50    23    48    1
    51    23    49    1
    52    24    50    1
    53    24    51    1
    54    24    52    1
