@<TRIPOS>MOLECULE
IMPHY001864
 16 15 0 0 0
SMALL
GASTEIGER

@<TRIPOS>ATOM
      1 O           4.5981   -0.2500    0.0000 O.3     1  UNL1       -0.4571
      2 O           2.8660   -1.2500    0.0000 O.2     1  UNL1       -0.2941
      3 O           5.4641    1.2500    0.0000 O.2     1  UNL1       -0.2512
      4 C           3.7320    0.2500    0.0000 C.3     1  UNL1        0.1498
      5 C           2.8660   -0.2500    0.0000 C.2     1  UNL1        0.1674
      6 C           2.0000    0.2500    0.0000 C.3     1  UNL1       -0.0026
      7 C           5.4641    0.2500    0.0000 C.2     1  UNL1        0.3043
      8 C           6.3301   -0.2500    0.0000 C.3     1  UNL1        0.0332
      9 H           4.1306    0.7249    0.0000 H       1  UNL1        0.0778
     10 H           3.3335    0.7249    0.0000 H       1  UNL1        0.0778
     11 H           2.3100    0.7869    0.0000 H       1  UNL1        0.0307
     12 H           1.4631    0.5600    0.0000 H       1  UNL1        0.0307
     13 H           1.6900   -0.2869    0.0000 H       1  UNL1        0.0307
     14 H           6.0201   -0.7869    0.0000 H       1  UNL1        0.0342
     15 H           6.8671   -0.5600    0.0000 H       1  UNL1        0.0342
     16 H           6.6401    0.2869    0.0000 H       1  UNL1        0.0342
@<TRIPOS>BOND
     1     1     4    1
     2     1     7    1
     3     2     5    2
     4     3     7    2
     5     4     5    1
     6     4     9    1
     7     4    10    1
     8     5     6    1
     9     6    11    1
    10     6    12    1
    11     6    13    1
    12     7     8    1
    13     8    14    1
    14     8    15    1
    15     8    16    1
