@<TRIPOS>MOLECULE
IMPHY005429
 55 58 0 0 0
SMALL
GASTEIGER

@<TRIPOS>ATOM
      1 O           3.6264   -0.0018    0.0000 O.3     1  UNL1       -0.3685
      2 O           6.6951   -0.0018    0.0000 O.3     1  UNL1       -0.3686
      3 O           5.1653    1.4982    0.0000 O.3     1  UNL1       -0.3829
      4 O           4.9344    4.1956    0.0000 O.3     1  UNL1       -0.4914
      5 O           5.3971   -4.1962    0.0000 O.3     1  UNL1       -0.4914
      6 O           2.9782    4.6114    0.0000 O.3     1  UNL1       -0.4915
      7 O           7.3541   -4.6086    0.0000 O.3     1  UNL1       -0.4915
      8 C           5.1653    0.4982    0.0000 C.3     1  UNL1        0.1268
      9 C           5.1653   -0.5018    0.0000 C.3     1  UNL1        0.0466
     10 C           4.2142    0.8072    0.0000 C.3     1  UNL1        0.1149
     11 C           6.1115   -0.8065    0.0000 C.3     1  UNL1        0.0915
     12 C           6.1115    0.8029    0.0000 C.3     1  UNL1        0.0804
     13 C           4.2142   -0.8108    0.0000 C.3     1  UNL1        0.0569
     14 C           3.9052    1.7583    0.0000 C.ar    1  UNL1       -0.0124
     15 C           6.4222   -1.7570    0.0000 C.ar    1  UNL1       -0.0148
     16 C           4.5743    2.5014    0.0000 C.ar    1  UNL1       -0.0106
     17 C           2.9270    1.9662    0.0000 C.ar    1  UNL1       -0.0523
     18 C           5.7543   -2.5013    0.0000 C.ar    1  UNL1       -0.0107
     19 C           7.4007   -1.9633    0.0000 C.ar    1  UNL1       -0.0524
     20 C           4.2653    3.4525    0.0000 C.ar    1  UNL1        0.1618
     21 C           6.0650   -3.4519    0.0000 C.ar    1  UNL1        0.1618
     22 C           2.6180    2.9172    0.0000 C.ar    1  UNL1       -0.0160
     23 C           7.7113   -2.9138    0.0000 C.ar    1  UNL1       -0.0160
     24 C           3.2872    3.6604    0.0000 C.ar    1  UNL1        0.1615
     25 C           7.0435   -3.6581    0.0000 C.ar    1  UNL1        0.1615
     26 C           4.6254    5.1467    0.0000 C.3     1  UNL1        0.0790
     27 C           5.7078   -5.1467    0.0000 C.3     1  UNL1        0.0790
     28 C           2.0000    4.8194    0.0000 C.3     1  UNL1        0.0790
     29 C           8.3326   -4.8148    0.0000 C.3     1  UNL1        0.0790
     30 H           5.1661   -1.1218    0.0000 H       1  UNL1        0.0381
     31 H           3.6018    0.9042    0.0000 H       1  UNL1        0.0676
     32 H           6.7240   -0.9027    0.0000 H       1  UNL1        0.0651
     33 H           6.6489    1.1122    0.0000 H       1  UNL1        0.0590
     34 H           5.8605    1.3698    0.0000 H       1  UNL1        0.0590
     35 H           3.6773   -1.1208    0.0000 H       1  UNL1        0.0565
     36 H           4.4664   -1.3772    0.0000 H       1  UNL1        0.0565
     37 H           5.7022    1.8082    0.0000 H       1  UNL1        0.2104
     38 H           5.1808    2.3725    0.0000 H       1  UNL1        0.0659
     39 H           2.5122    1.5054    0.0000 H       1  UNL1        0.0622
     40 H           5.1476   -2.3735    0.0000 H       1  UNL1        0.0659
     41 H           7.8147   -1.5018    0.0000 H       1  UNL1        0.0622
     42 H           2.0116    3.0462    0.0000 H       1  UNL1        0.0655
     43 H           8.3180   -3.0416    0.0000 H       1  UNL1        0.0655
     44 H           5.2151    5.3383    0.0000 H       1  UNL1        0.0660
     45 H           4.4338    5.7363    0.0000 H       1  UNL1        0.0660
     46 H           4.0358    4.9551    0.0000 H       1  UNL1        0.0660
     47 H           5.1185   -5.3393    0.0000 H       1  UNL1        0.0660
     48 H           5.9004   -5.7360    0.0000 H       1  UNL1        0.0660
     49 H           6.2971   -4.9541    0.0000 H       1  UNL1        0.0660
     50 H           2.1289    5.4258    0.0000 H       1  UNL1        0.0660
     51 H           1.3936    4.9483    0.0000 H       1  UNL1        0.0660
     52 H           1.8711    4.2129    0.0000 H       1  UNL1        0.0660
     53 H           8.2048   -5.4215    0.0000 H       1  UNL1        0.0660
     54 H           8.9393   -4.9427    0.0000 H       1  UNL1        0.0660
     55 H           8.4605   -4.2082    0.0000 H       1  UNL1        0.0660
@<TRIPOS>BOND
     1     1    10    1
     2     1    13    1
     3     2    11    1
     4     2    12    1
     5     3     8    1
     6     3    37    1
     7     4    20    1
     8     4    26    1
     9     5    21    1
    10     5    27    1
    11     6    24    1
    12     6    28    1
    13     7    25    1
    14     7    29    1
    15     8     9    1
    16     8    10    1
    17     8    12    1
    18     9    11    1
    19     9    13    1
    20     9    30    1
    21    10    14    1
    22    10    31    1
    23    11    15    1
    24    11    32    1
    25    12    33    1
    26    12    34    1
    27    13    35    1
    28    13    36    1
    29    14    16   ar
    30    14    17   ar
    31    15    18   ar
    32    15    19   ar
    33    16    20   ar
    34    16    38    1
    35    17    22   ar
    36    17    39    1
    37    18    21   ar
    38    18    40    1
    39    19    23   ar
    40    19    41    1
    41    20    24   ar
    42    21    25   ar
    43    22    24   ar
    44    22    42    1
    45    23    25   ar
    46    23    43    1
    47    26    44    1
    48    26    45    1
    49    26    46    1
    50    27    47    1
    51    27    48    1
    52    27    49    1
    53    28    50    1
    54    28    51    1
    55    28    52    1
    56    29    53    1
    57    29    54    1
    58    29    55    1
