@<TRIPOS>MOLECULE
IMPHY002273
 51 53 0 0 0
SMALL
GASTEIGER

@<TRIPOS>ATOM
      1 O           4.8764    4.0992    0.0000 O.3     1  UNL1       -0.3649
      2 O           6.3867    1.4162    0.0000 O.3     1  UNL1       -0.4572
      3 O           4.2690   -1.0992    0.0000 O.3     1  UNL1       -0.4532
      4 O           7.7080    0.2290    0.0000 O.2     1  UNL1       -0.2453
      5 O           2.5369   -1.0992    0.0000 O.2     1  UNL1       -0.2453
      6 C           4.8762    3.0988    0.0000 C.3     1  UNL1        0.0966
      7 C           4.0102    3.5988    0.0000 C.3     1  UNL1        0.0885
      8 C           4.8762    2.0988    0.0000 C.3     1  UNL1        0.0164
      9 C           5.3938    1.3667    0.0000 C.3     1  UNL1        0.1167
     10 C           3.1441    3.0988    0.0000 C.3     1  UNL1       -0.0202
     11 C           5.1350    0.4008    0.0000 C.3     1  UNL1        0.0681
     12 C           5.7422    2.5988    0.0000 C.3     1  UNL1       -0.0332
     13 C           3.6441    2.2327    0.0000 C.3     1  UNL1       -0.0295
     14 C           4.2690   -0.0992    0.0000 C.3     1  UNL1        0.1321
     15 C           5.9701   -0.1385    0.0000 C.2     1  UNL1        0.0399
     16 C           3.1441    1.3667    0.0000 C.2     1  UNL1       -0.0730
     17 C           3.4030    0.4008    0.0000 C.2     1  UNL1       -0.0443
     18 C           6.7421    0.4878    0.0000 C.2     1  UNL1        0.3354
     19 C           2.1527    1.4972    0.0000 C.3     1  UNL1       -0.0437
     20 C           6.0242   -1.1370    0.0000 C.2     1  UNL1       -0.0882
     21 C           3.4030   -1.5992    0.0000 C.2     1  UNL1        0.3351
     22 C           3.4030   -2.5992    0.0000 C.2     1  UNL1        0.0294
     23 C           4.2690   -3.0992    0.0000 C.3     1  UNL1       -0.0333
     24 C           2.5369   -3.0992    0.0000 C.2     1  UNL1       -0.0774
     25 C           2.5369   -4.0992    0.0000 C.3     1  UNL1       -0.0461
     26 H           3.7001    4.1357    0.0000 H       1  UNL1        0.0625
     27 H           4.2874    2.2929    0.0000 H       1  UNL1        0.0330
     28 H           5.4671    2.2866    0.0000 H       1  UNL1        0.0330
     29 H           5.7834    0.8844    0.0000 H       1  UNL1        0.0742
     30 H           2.8341    3.6357    0.0000 H       1  UNL1        0.0294
     31 H           2.6072    2.7888    0.0000 H       1  UNL1        0.0294
     32 H           5.1196   -0.2190    0.0000 H       1  UNL1        0.0427
     33 H           5.4322    2.0618    0.0000 H       1  UNL1        0.0258
     34 H           6.2791    2.2888    0.0000 H       1  UNL1        0.0258
     35 H           6.0522    3.1357    0.0000 H       1  UNL1        0.0258
     36 H           4.1191    1.8342    0.0000 H       1  UNL1        0.0311
     37 H           4.1191    2.6313    0.0000 H       1  UNL1        0.0311
     38 H           3.7320   -0.4092    0.0000 H       1  UNL1        0.0787
     39 H           2.9111    0.0234    0.0000 H       1  UNL1        0.0608
     40 H           2.2336    2.1119    0.0000 H       1  UNL1        0.0274
     41 H           1.5380    1.5782    0.0000 H       1  UNL1        0.0274
     42 H           2.0718    0.8825    0.0000 H       1  UNL1        0.0274
     43 H           5.5048   -1.4756    0.0000 H       1  UNL1        0.0540
     44 H           6.5771   -1.4175    0.0000 H       1  UNL1        0.0540
     45 H           3.9590   -3.6362    0.0000 H       1  UNL1        0.0280
     46 H           4.8059   -3.4092    0.0000 H       1  UNL1        0.0280
     47 H           4.5790   -2.5623    0.0000 H       1  UNL1        0.0280
     48 H           2.0000   -2.7892    0.0000 H       1  UNL1        0.0574
     49 H           1.9169   -4.0992    0.0000 H       1  UNL1        0.0272
     50 H           2.5369   -4.7192    0.0000 H       1  UNL1        0.0272
     51 H           3.1569   -4.0992    0.0000 H       1  UNL1        0.0272
@<TRIPOS>BOND
     1     1     6    1
     2     1     7    1
     3     2     9    1
     4     2    18    1
     5     3    14    1
     6     3    21    1
     7     4    18    2
     8     5    21    2
     9     6     7    1
    10     6     8    1
    11     6    12    1
    12     7    10    1
    13     7    26    1
    14     8     9    1
    15     8    27    1
    16     8    28    1
    17     9    11    1
    18     9    29    1
    19    10    13    1
    20    10    30    1
    21    10    31    1
    22    11    14    1
    23    11    15    1
    24    11    32    1
    25    12    33    1
    26    12    34    1
    27    12    35    1
    28    13    16    1
    29    13    36    1
    30    13    37    1
    31    14    17    1
    32    14    38    1
    33    15    18    1
    34    15    20    2
    35    16    17    2
    36    16    19    1
    37    17    39    1
    38    19    40    1
    39    19    41    1
    40    19    42    1
    41    20    43    1
    42    20    44    1
    43    21    22    1
    44    22    23    1
    45    22    24    2
    46    23    45    1
    47    23    46    1
    48    23    47    1
    49    24    25    1
    50    24    48    1
    51    25    49    1
    52    25    50    1
    53    25    51    1
