@<TRIPOS>MOLECULE
IMPHY015468
 20 20 0 0 0
SMALL
GASTEIGER

@<TRIPOS>ATOM
      1 O           3.7601    0.5194    0.0000 O.3     1  UNL1       -0.4538
      2 O           2.0000   -0.7593    0.0000 O.2     1  UNL1       -0.2935
      3 O           5.4921    0.5194    0.0000 O.2     1  UNL1       -0.2511
      4 C           4.5691   -1.0684    0.0000 C.3     1  UNL1       -0.0082
      5 C           3.7601   -0.4806    0.0000 C.3     1  UNL1        0.1604
      6 C           4.2601   -2.0194    0.0000 C.3     1  UNL1       -0.0425
      7 C           3.2601   -2.0194    0.0000 C.3     1  UNL1        0.0097
      8 C           2.9511   -1.0684    0.0000 C.2     1  UNL1        0.1736
      9 C           4.6261    1.0194    0.0000 C.2     1  UNL1        0.3046
     10 C           4.6261    2.0194    0.0000 C.3     1  UNL1        0.0333
     11 H           5.1355   -1.3205    0.0000 H       1  UNL1        0.0305
     12 H           4.8791   -0.5314    0.0000 H       1  UNL1        0.0305
     13 H           4.3125   -0.1991    0.0000 H       1  UNL1        0.0815
     14 H           4.1953   -2.6360    0.0000 H       1  UNL1        0.0271
     15 H           4.8665   -2.1483    0.0000 H       1  UNL1        0.0271
     16 H           2.6536   -2.1483    0.0000 H       1  UNL1        0.0343
     17 H           3.3249   -2.6360    0.0000 H       1  UNL1        0.0343
     18 H           5.2461    2.0194    0.0000 H       1  UNL1        0.0342
     19 H           4.6261    2.6394    0.0000 H       1  UNL1        0.0342
     20 H           4.0061    2.0194    0.0000 H       1  UNL1        0.0342
@<TRIPOS>BOND
     1     1     5    1
     2     1     9    1
     3     2     8    2
     4     3     9    2
     5     4     5    1
     6     4     6    1
     7     4    11    1
     8     4    12    1
     9     5     8    1
    10     5    13    1
    11     6     7    1
    12     6    14    1
    13     6    15    1
    14     7     8    1
    15     7    16    1
    16     7    17    1
    17     9    10    1
    18    10    18    1
    19    10    19    1
    20    10    20    1
