@<TRIPOS>MOLECULE
IMPHY000350
 100 111 0 0 0
SMALL
GASTEIGER

@<TRIPOS>ATOM
      1 O           7.5112    6.0855    0.0000 O.3     1  UNL1       -0.3634
      2 O           6.4555    2.1971    0.0000 O.3     1  UNL1       -0.4677
      3 O           5.8452    3.4728    0.0000 O.2     1  UNL1       -0.2505
      4 O           7.4467   -1.7686    0.0000 O.2     1  UNL1       -0.4547
      5 O           4.5137   -5.5071    0.0000 O.3     1  UNL1       -0.4677
      6 O           5.5155   -4.0942    0.0000 O.2     1  UNL1       -0.2505
      7 N           9.5202    4.8161    0.0000 N.3     1  UNL1       -0.2948
      8 N           9.7464    1.3424    0.0000 N.pl3   1  UNL1       -0.3272
      9 N           3.3235   -0.8307    0.0000 N.3     1  UNL1       -0.2771
     10 N           3.3839   -1.3567    0.0000 N.pl3   1  UNL1       -0.3135
     11 C           8.3429    2.3639    0.0000 C.3     1  UNL1        0.0318
     12 C           8.3239    4.2939    0.0000 C.3     1  UNL1        0.0070
     13 C           8.0720    5.2576    0.0000 C.3     1  UNL1        0.1119
     14 C           9.4151    2.3621    0.0000 C.3     1  UNL1        0.0492
     15 C           9.9900    3.3196    0.0000 C.3     1  UNL1        0.0302
     16 C           7.7713    3.3234    0.0000 C.3     1  UNL1        0.0734
     17 C           9.4408    4.2920    0.0000 C.3     1  UNL1       -0.0292
     18 C           8.9849    5.6560    0.0000 C.3     1  UNL1        0.0311
     19 C           7.0746    5.1858    0.0000 C.3     1  UNL1        0.0872
     20 C           7.2768    3.5145    0.0000 C.3     1  UNL1       -0.0279
     21 C           7.9558    4.9285    0.0000 C.3     1  UNL1        0.0002
     22 C           3.8839   -2.8956    0.0000 C.3     1  UNL1        0.0470
     23 C           8.0081    1.3454    0.0000 C.ar    1  UNL1       -0.0167
     24 C           3.0749   -2.3078    0.0000 C.3     1  UNL1        0.0991
     25 C           8.8801    0.7107    0.0000 C.ar    1  UNL1        0.0371
     26 C           3.7910   -3.9330    0.0000 C.3     1  UNL1        0.0758
     27 C           5.2118   -2.2027    0.0000 C.3     1  UNL1       -0.0264
     28 C           2.1169   -2.7167    0.0000 C.3     1  UNL1       -0.0163
     29 C           2.8427   -4.3640    0.0000 C.3     1  UNL1       -0.0047
     30 C           6.7882    3.1402    0.0000 C.2     1  UNL1        0.3112
     31 C           4.6929   -2.3078    0.0000 C.ar    1  UNL1       -0.0125
     32 C           4.8195   -0.7572    0.0000 C.3     1  UNL1        0.0021
     33 C           6.0772    5.1141    0.0000 C.3     1  UNL1       -0.0359
     34 C           2.0000   -3.7518    0.0000 C.3     1  UNL1       -0.0425
     35 C           7.0258    0.9000    0.0000 C.ar    1  UNL1       -0.0448
     36 C           4.3839   -1.3567    0.0000 C.ar    1  UNL1        0.0355
     37 C           3.2044   -2.0139    0.0000 C.3     1  UNL1        0.0223
     38 C           3.0440   -3.1921    0.0000 C.2     1  UNL1       -0.0558
     39 C          10.6977    1.0342    0.0000 C.3     1  UNL1        0.0011
     40 C           8.7582   -0.3610    0.0000 C.ar    1  UNL1        0.0026
     41 C           6.9286   -0.1742    0.0000 C.ar    1  UNL1        0.0284
     42 C           5.7083   -2.5400    0.0000 C.ar    1  UNL1       -0.0131
     43 C           4.6067   -4.5114    0.0000 C.2     1  UNL1        0.3115
     44 C           7.7658   -0.7836    0.0000 C.ar    1  UNL1        0.1380
     45 C           6.0893   -0.7807    0.0000 C.ar    1  UNL1        0.0297
     46 C           5.0688   -0.5720    0.0000 C.ar    1  UNL1       -0.0290
     47 C           2.4703   -0.9500    0.0000 C.3     1  UNL1        0.0024
     48 C           6.4112   -1.7713    0.0000 C.ar    1  UNL1        0.1366
     49 C           4.0324   -3.3442    0.0000 C.2     1  UNL1       -0.0864
     50 C           5.4724    2.0138    0.0000 C.3     1  UNL1        0.0817
     51 C           4.7522   -2.4473    0.0000 C.3     1  UNL1       -0.0465
     52 C           5.3295   -6.0855    0.0000 C.3     1  UNL1        0.0817
     53 H           8.7033    4.7843    0.0000 H       1  UNL1        0.0338
     54 H          10.0311    2.2920    0.0000 H       1  UNL1        0.0524
     55 H          10.6057    3.2464    0.0000 H       1  UNL1        0.0481
     56 H           8.3913    3.3295    0.0000 H       1  UNL1        0.0426
     57 H          10.0248    4.5000    0.0000 H       1  UNL1        0.0285
     58 H           9.3357    4.9030    0.0000 H       1  UNL1        0.0285
     59 H           9.5243    5.9616    0.0000 H       1  UNL1        0.0456
     60 H           8.7077    6.2106    0.0000 H       1  UNL1        0.0456
     61 H           6.7269    5.6991    0.0000 H       1  UNL1        0.0623
     62 H           6.7558    3.8506    0.0000 H       1  UNL1        0.0287
     63 H           6.8783    3.0396    0.0000 H       1  UNL1        0.0287
     64 H           8.0771    5.5365    0.0000 H       1  UNL1        0.0427
     65 H           7.3677    5.1249    0.0000 H       1  UNL1        0.0427
     66 H           3.7321   -4.5502    0.0000 H       1  UNL1        0.0429
     67 H           5.4583   -2.7716    0.0000 H       1  UNL1        0.0287
     68 H           5.7969   -1.9977    0.0000 H       1  UNL1        0.0287
     69 H           1.9746   -2.1133    0.0000 H       1  UNL1        0.0300
     70 H           1.4980   -2.7536    0.0000 H       1  UNL1        0.0300
     71 H           2.7803   -4.9809    0.0000 H       1  UNL1        0.0354
     72 H           5.4279   -0.6382    0.0000 H       1  UNL1        0.0428
     73 H           4.7446   -0.1417    0.0000 H       1  UNL1        0.0428
     74 H           6.0327    5.7325    0.0000 H       1  UNL1        0.0255
     75 H           5.4588    5.0696    0.0000 H       1  UNL1        0.0255
     76 H           6.1217    4.4957    0.0000 H       1  UNL1        0.0255
     77 H           1.4049   -3.5778    0.0000 H       1  UNL1        0.0272
     78 H           1.7268   -4.3083    0.0000 H       1  UNL1        0.0272
     79 H           6.5203    1.2590    0.0000 H       1  UNL1        0.0628
     80 H           3.6990   -2.3877    0.0000 H       1  UNL1        0.0473
     81 H           2.5887   -1.9410    0.0000 H       1  UNL1        0.0473
     82 H          10.5067    0.4444    0.0000 H       1  UNL1        0.0428
     83 H          11.2876    0.8431    0.0000 H       1  UNL1        0.0428
     84 H          10.8888    1.6240    0.0000 H       1  UNL1        0.0428
     85 H           9.2552   -0.7316    0.0000 H       1  UNL1        0.0673
     86 H           5.8931   -3.1318    0.0000 H       1  UNL1        0.0658
     87 H           4.8704    0.0154    0.0000 H       1  UNL1        0.0643
     88 H           2.7225   -0.3836    0.0000 H       1  UNL1        0.0428
     89 H           1.9039   -0.6978    0.0000 H       1  UNL1        0.0428
     90 H           2.2182   -1.5164    0.0000 H       1  UNL1        0.0428
     91 H           4.4412   -3.8103    0.0000 H       1  UNL1        0.0569
     92 H           5.3588    2.6233    0.0000 H       1  UNL1        0.0661
     93 H           4.8629    1.9002    0.0000 H       1  UNL1        0.0661
     94 H           5.5861    1.4043    0.0000 H       1  UNL1        0.0661
     95 H           5.2357   -2.8354    0.0000 H       1  UNL1        0.0272
     96 H           5.1403   -1.9638    0.0000 H       1  UNL1        0.0272
     97 H           4.2687   -2.0593    0.0000 H       1  UNL1        0.0272
     98 H           4.9709   -6.5913    0.0000 H       1  UNL1        0.0661
     99 H           5.8352   -6.4441    0.0000 H       1  UNL1        0.0661
    100 H           5.6881   -5.5797    0.0000 H       1  UNL1        0.0661
@<TRIPOS>BOND
     1     1    13    1
     2     1    19    1
     3     2    30    1
     4     2    50    1
     5     3    30    2
     6     4    44   ar
     7     4    48   ar
     8     5    43    1
     9     5    52    1
    10     6    43    2
    11     7    15    1
    12     7    18    1
    13     7    21    1
    14     8    14    1
    15     8    25    1
    16     8    39    1
    17     9    24    1
    18     9    32    1
    19     9    37    1
    20    10    24    1
    21    10    36    1
    22    10    47    1
    23    11    14    1
    24    11    16    1
    25    11    20    1
    26    11    23    1
    27    12    13    1
    28    12    16    1
    29    12    17    1
    30    12    53    1
    31    13    18    1
    32    13    19    1
    33    14    15    1
    34    14    54    1
    35    15    17    1
    36    15    55    1
    37    16    30    1
    38    16    56    1
    39    17    57    1
    40    17    58    1
    41    18    59    1
    42    18    60    1
    43    19    33    1
    44    19    61    1
    45    20    21    1
    46    20    62    1
    47    20    63    1
    48    21    64    1
    49    21    65    1
    50    22    24    1
    51    22    26    1
    52    22    27    1
    53    22    31    1
    54    23    25   ar
    55    23    35   ar
    56    24    28    1
    57    25    40   ar
    58    26    29    1
    59    26    43    1
    60    26    66    1
    61    27    32    1
    62    27    67    1
    63    27    68    1
    64    28    34    1
    65    28    69    1
    66    28    70    1
    67    29    34    1
    68    29    38    1
    69    29    71    1
    70    31    36   ar
    71    31    42   ar
    72    32    72    1
    73    32    73    1
    74    33    74    1
    75    33    75    1
    76    33    76    1
    77    34    77    1
    78    34    78    1
    79    35    41   ar
    80    35    79    1
    81    36    46   ar
    82    37    38    1
    83    37    80    1
    84    37    81    1
    85    38    49    2
    86    39    82    1
    87    39    83    1
    88    39    84    1
    89    40    44   ar
    90    40    85    1
    91    41    44   ar
    92    41    45   ar
    93    42    48   ar
    94    42    86    1
    95    45    46   ar
    96    45    48   ar
    97    46    87    1
    98    47    88    1
    99    47    89    1
   100    47    90    1
   101    49    51    1
   102    49    91    1
   103    50    92    1
   104    50    93    1
   105    50    94    1
   106    51    95    1
   107    51    96    1
   108    51    97    1
   109    52    98    1
   110    52    99    1
   111    52   100    1
