@<TRIPOS>MOLECULE
IMPHY000701
 83 85 0 0 0
SMALL
GASTEIGER

@<TRIPOS>ATOM
      1 O          13.9126   -0.0558    0.0000 O.3     1  UNL1       -0.3950
      2 C           7.8067   -0.5225    0.0000 C.3     1  UNL1       -0.0233
      3 C           7.8067   -1.5226    0.0000 C.3     1  UNL1       -0.0259
      4 C           8.6727   -0.0225    0.0000 C.3     1  UNL1       -0.0289
      5 C           9.5387   -0.5225    0.0000 C.3     1  UNL1       -0.0222
      6 C           8.6727   -2.0226    0.0000 C.3     1  UNL1       -0.0466
      7 C           6.9127   -2.0572    0.0000 C.3     1  UNL1       -0.0417
      8 C           9.5387   -1.5226    0.0000 C.3     1  UNL1       -0.0463
      9 C           6.9127    0.0121    0.0000 C.3     1  UNL1       -0.0464
     10 C           6.0066   -1.5434    0.0000 C.3     1  UNL1       -0.0312
     11 C          10.4487   -0.0157    0.0000 C.3     1  UNL1       -0.0139
     12 C           8.6566    1.0190    0.0000 C.3     1  UNL1       -0.0455
     13 C           6.0066   -0.5017    0.0000 C.3     1  UNL1       -0.0471
     14 C           7.8067    0.4775    0.0000 C.3     1  UNL1       -0.0588
     15 C           7.8067   -2.5226    0.0000 C.3     1  UNL1       -0.0590
     16 C          10.4047   -1.0226    0.0000 C.3     1  UNL1       -0.0587
     17 C           9.5547    1.5467    0.0000 C.3     1  UNL1       -0.0309
     18 C          10.4567    1.0259    0.0000 C.2     1  UNL1       -0.0672
     19 C           5.0066   -1.5472    0.0000 C.3     1  UNL1       -0.0442
     20 C          11.3089   -0.5257    0.0000 C.3     1  UNL1       -0.0439
     21 C           5.5100   -2.4113    0.0000 C.3     1  UNL1       -0.0595
     22 C          11.3247    1.5226    0.0000 C.2     1  UNL1       -0.0762
     23 C          12.1806   -0.0357    0.0000 C.3     1  UNL1       -0.0292
     24 C           4.5033   -0.6831    0.0000 C.3     1  UNL1       -0.0340
     25 C          11.3285    2.5226    0.0000 C.3     1  UNL1       -0.0438
     26 C          12.1888    1.0192    0.0000 C.3     1  UNL1       -0.0438
     27 C          13.0408   -0.5457    0.0000 C.3     1  UNL1        0.0442
     28 C           3.5033   -0.6870    0.0000 C.2     1  UNL1       -0.0853
     29 C           3.0000    0.1771    0.0000 C.2     1  UNL1       -0.0796
     30 C           2.0000    0.1733    0.0000 C.3     1  UNL1       -0.0440
     31 C           3.4966    1.0451    0.0000 C.3     1  UNL1       -0.0440
     32 H           9.4055    0.4081    0.0000 H       1  UNL1        0.0312
     33 H           8.2742   -2.4975    0.0000 H       1  UNL1        0.0271
     34 H           9.0712   -2.4975    0.0000 H       1  UNL1        0.0271
     35 H           6.5191   -2.5362    0.0000 H       1  UNL1        0.0276
     36 H           7.3173   -2.5270    0.0000 H       1  UNL1        0.0276
     37 H           9.7508   -2.1052    0.0000 H       1  UNL1        0.0271
     38 H          10.1493   -1.4149    0.0000 H       1  UNL1        0.0271
     39 H           7.3173    0.4819    0.0000 H       1  UNL1        0.0271
     40 H           6.5191    0.4911    0.0000 H       1  UNL1        0.0271
     41 H          10.9886    0.2891    0.0000 H       1  UNL1        0.0351
     42 H           8.4386    1.5994    0.0000 H       1  UNL1        0.0271
     43 H           8.0475    0.9035    0.0000 H       1  UNL1        0.0271
     44 H           5.7976    0.0820    0.0000 H       1  UNL1        0.0271
     45 H           5.3958   -0.6078    0.0000 H       1  UNL1        0.0271
     46 H           8.4267    0.4775    0.0000 H       1  UNL1        0.0235
     47 H           7.8067    1.0974    0.0000 H       1  UNL1        0.0235
     48 H           7.1867    0.4775    0.0000 H       1  UNL1        0.0235
     49 H           7.1867   -2.5226    0.0000 H       1  UNL1        0.0235
     50 H           7.8067   -3.1426    0.0000 H       1  UNL1        0.0235
     51 H           8.4267   -2.5226    0.0000 H       1  UNL1        0.0235
     52 H          10.0947   -1.5595    0.0000 H       1  UNL1        0.0235
     53 H          10.9417   -1.3325    0.0000 H       1  UNL1        0.0235
     54 H          10.7147   -0.4856    0.0000 H       1  UNL1        0.0235
     55 H           9.9520    2.0227    0.0000 H       1  UNL1        0.0310
     56 H           9.1537    2.0196    0.0000 H       1  UNL1        0.0310
     57 H           4.4249   -1.7615    0.0000 H       1  UNL1        0.0273
     58 H           5.1167   -2.1574    0.0000 H       1  UNL1        0.0273
     59 H          10.9049   -0.9960    0.0000 H       1  UNL1        0.0272
     60 H          11.7019   -1.0052    0.0000 H       1  UNL1        0.0272
     61 H           4.9719   -2.1034    0.0000 H       1  UNL1        0.0235
     62 H           5.2021   -2.9494    0.0000 H       1  UNL1        0.0235
     63 H           6.0481   -2.7192    0.0000 H       1  UNL1        0.0235
     64 H          12.5846    0.4346    0.0000 H       1  UNL1        0.0287
     65 H          11.7876    0.4438    0.0000 H       1  UNL1        0.0287
     66 H           5.0851   -0.4688    0.0000 H       1  UNL1        0.0308
     67 H           4.3933   -0.0730    0.0000 H       1  UNL1        0.0308
     68 H          11.9485    2.5202    0.0000 H       1  UNL1        0.0274
     69 H          11.3309    3.1425    0.0000 H       1  UNL1        0.0274
     70 H          10.7085    2.5249    0.0000 H       1  UNL1        0.0274
     71 H          11.8767    0.4835    0.0000 H       1  UNL1        0.0274
     72 H          12.7245    0.7072    0.0000 H       1  UNL1        0.0274
     73 H          12.5008    1.5550    0.0000 H       1  UNL1        0.0274
     74 H          12.6368   -1.0160    0.0000 H       1  UNL1        0.0557
     75 H          13.4338   -1.0252    0.0000 H       1  UNL1        0.0557
     76 H           3.1954   -1.2251    0.0000 H       1  UNL1        0.0571
     77 H          14.4459   -0.3719    0.0000 H       1  UNL1        0.2094
     78 H           1.9976    0.7933    0.0000 H       1  UNL1        0.0274
     79 H           1.3800    0.1709    0.0000 H       1  UNL1        0.0274
     80 H           2.0024   -0.4467    0.0000 H       1  UNL1        0.0274
     81 H           4.0348    0.7371    0.0000 H       1  UNL1        0.0274
     82 H           3.8046    1.5832    0.0000 H       1  UNL1        0.0274
     83 H           2.9585    1.3530    0.0000 H       1  UNL1        0.0274
@<TRIPOS>BOND
     1     1    27    1
     2     1    77    1
     3     2     3    1
     4     2     4    1
     5     2     9    1
     6     2    14    1
     7     3     6    1
     8     3     7    1
     9     3    15    1
    10     4     5    1
    11     4    12    1
    12     4    32    1
    13     5     8    1
    14     5    11    1
    15     5    16    1
    16     6     8    1
    17     6    33    1
    18     6    34    1
    19     7    10    1
    20     7    35    1
    21     7    36    1
    22     8    37    1
    23     8    38    1
    24     9    13    1
    25     9    39    1
    26     9    40    1
    27    10    13    1
    28    10    19    1
    29    10    21    1
    30    11    18    1
    31    11    20    1
    32    11    41    1
    33    12    17    1
    34    12    42    1
    35    12    43    1
    36    13    44    1
    37    13    45    1
    38    14    46    1
    39    14    47    1
    40    14    48    1
    41    15    49    1
    42    15    50    1
    43    15    51    1
    44    16    52    1
    45    16    53    1
    46    16    54    1
    47    17    18    1
    48    17    55    1
    49    17    56    1
    50    18    22    2
    51    19    24    1
    52    19    57    1
    53    19    58    1
    54    20    23    1
    55    20    59    1
    56    20    60    1
    57    21    61    1
    58    21    62    1
    59    21    63    1
    60    22    25    1
    61    22    26    1
    62    23    27    1
    63    23    64    1
    64    23    65    1
    65    24    28    1
    66    24    66    1
    67    24    67    1
    68    25    68    1
    69    25    69    1
    70    25    70    1
    71    26    71    1
    72    26    72    1
    73    26    73    1
    74    27    74    1
    75    27    75    1
    76    28    29    2
    77    28    76    1
    78    29    30    1
    79    29    31    1
    80    30    78    1
    81    30    79    1
    82    30    80    1
    83    31    81    1
    84    31    82    1
    85    31    83    1
