@<TRIPOS>MOLECULE
IMPHY017917
 12 13 0 0 0
SMALL
GASTEIGER

@<TRIPOS>ATOM
      1 N           3.7321   -1.0000    0.0000 N.ar    1  UNL1       -0.2500
      2 C           4.5981    0.5000    0.0000 C.ar    1  UNL1        0.0174
      3 C           2.8660    0.5000    0.0000 C.ar    1  UNL1       -0.0082
      4 C           4.5981   -0.5000    0.0000 C.ar    1  UNL1        0.0809
      5 C           2.8660   -0.5000    0.0000 C.ar    1  UNL1        0.0554
      6 C           3.7321    1.0000    0.0000 C.ar    1  UNL1       -0.0016
      7 C           5.4920    1.0347    0.0000 C.ar    1  UNL1        0.0015
      8 C           2.0000    1.0000    0.0000 C.3     1  UNL1        0.0323
      9 C           5.4920   -1.0347    0.0000 C.ar    1  UNL1        0.0191
     10 C           2.0000   -1.0000    0.0000 C.3     1  UNL1        0.0517
     11 C           6.3981    0.5208    0.0000 C.ar    1  UNL1        0.0001
     12 C           6.3981   -0.5208    0.0000 C.ar    1  UNL1        0.0015
@<TRIPOS>BOND
     1     1     4   ar
     2     1     5   ar
     3     2     4   ar
     4     2     6   ar
     5     2     7   ar
     6     3     5   ar
     7     3     6   ar
     8     3     8    1
     9     4     9   ar
    10     5    10    1
    11     7    11   ar
    12     9    12   ar
    13    11    12   ar
