@<TRIPOS>MOLECULE
IMPHY011267
 79 83 0 0 0
SMALL
GASTEIGER

@<TRIPOS>ATOM
      1 O           2.0000   -1.9012    0.0000 O.2     1  UNL1       -0.2968
      2 C           7.3931    0.1511    0.0000 C.3     1  UNL1       -0.0231
      3 C           6.5271   -0.3489    0.0000 C.3     1  UNL1       -0.0231
      4 C           7.3931    1.1511    0.0000 C.3     1  UNL1       -0.0294
      5 C           5.6610    0.1511    0.0000 C.3     1  UNL1       -0.0294
      6 C           8.2870    1.6858    0.0000 C.3     1  UNL1       -0.0253
      7 C           4.7510   -0.3557    0.0000 C.3     1  UNL1       -0.0246
      8 C           9.1931    1.1719    0.0000 C.3     1  UNL1       -0.0288
      9 C           8.2870   -0.3835    0.0000 C.3     1  UNL1       -0.0466
     10 C           6.5271    1.6511    0.0000 C.3     1  UNL1       -0.0489
     11 C           4.7430   -1.3973    0.0000 C.3     1  UNL1       -0.0235
     12 C           5.6610    1.1511    0.0000 C.3     1  UNL1       -0.0489
     13 C           6.5431   -1.3904    0.0000 C.3     1  UNL1       -0.0466
     14 C           9.1931    0.1303    0.0000 C.3     1  UNL1       -0.0486
     15 C           8.4971    2.6997    0.0000 C.3     1  UNL1       -0.0465
     16 C           5.6451   -1.9181    0.0000 C.3     1  UNL1       -0.0483
     17 C           9.9554    1.8727    0.0000 C.3     1  UNL1       -0.0171
     18 C           7.7352   -0.7885    0.0000 C.3     1  UNL1       -0.0588
     19 C           7.1698   -1.1149    0.0000 C.3     1  UNL1       -0.0588
     20 C           3.8242    0.2084    0.0000 C.3     1  UNL1       -0.0404
     21 C           3.8076   -1.9470    0.0000 C.3     1  UNL1        0.0267
     22 C           9.5262    2.8150    0.0000 C.3     1  UNL1       -0.0457
     23 C           7.4172    2.1791    0.0000 C.3     1  UNL1       -0.0590
     24 C           4.7587    0.6442    0.0000 C.3     1  UNL1       -0.0590
     25 C           2.8763   -0.3196    0.0000 C.3     1  UNL1        0.0069
     26 C           2.8680   -1.4046    0.0000 C.2     1  UNL1        0.1392
     27 C          10.9355    1.6740    0.0000 C.2     1  UNL1       -0.0763
     28 C           3.3109   -2.8150    0.0000 C.3     1  UNL1       -0.0528
     29 C           4.3109   -2.8111    0.0000 C.3     1  UNL1       -0.0528
     30 C          11.5976    2.4234    0.0000 C.3     1  UNL1       -0.0438
     31 C          11.2535    0.7259    0.0000 C.2     1  UNL1       -0.0994
     32 H           8.1325    0.7318    0.0000 H       1  UNL1        0.0312
     33 H           6.3972    0.5761    0.0000 H       1  UNL1        0.0312
     34 H           9.9714    0.8302    0.0000 H       1  UNL1        0.0312
     35 H           7.8824   -0.8533    0.0000 H       1  UNL1        0.0271
     36 H           8.6806   -0.8626    0.0000 H       1  UNL1        0.0271
     37 H           6.9256    2.1261    0.0000 H       1  UNL1        0.0268
     38 H           6.1285    2.1261    0.0000 H       1  UNL1        0.0268
     39 H           4.7463   -2.2473    0.0000 H       1  UNL1        0.0315
     40 H           5.4490    1.7337    0.0000 H       1  UNL1        0.0268
     41 H           5.0504    1.0435    0.0000 H       1  UNL1        0.0268
     42 H           6.7612   -1.9708    0.0000 H       1  UNL1        0.0271
     43 H           7.1523   -1.2749    0.0000 H       1  UNL1        0.0271
     44 H           9.4022   -0.4534    0.0000 H       1  UNL1        0.0268
     45 H           9.8040    0.2364    0.0000 H       1  UNL1        0.0268
     46 H           5.2478   -2.3941    0.0000 H       1  UNL1        0.0269
     47 H           6.0460   -2.3910    0.0000 H       1  UNL1        0.0269
     48 H           8.4932    3.3197    0.0000 H       1  UNL1        0.0271
     49 H           7.8802    2.7610    0.0000 H       1  UNL1        0.0271
     50 H          10.3412    2.3580    0.0000 H       1  UNL1        0.0348
     51 H           7.1526   -1.0006    0.0000 H       1  UNL1        0.0235
     52 H           7.9473   -1.3711    0.0000 H       1  UNL1        0.0235
     53 H           8.3178   -0.5764    0.0000 H       1  UNL1        0.0235
     54 H           6.6949   -1.5134    0.0000 H       1  UNL1        0.0235
     55 H           7.5684   -1.5899    0.0000 H       1  UNL1        0.0235
     56 H           7.6448   -0.7164    0.0000 H       1  UNL1        0.0235
     57 H           4.2324    0.6750    0.0000 H       1  UNL1        0.0275
     58 H           3.4343    0.6904    0.0000 H       1  UNL1        0.0275
     59 H          10.1143    3.0113    0.0000 H       1  UNL1        0.0271
     60 H           9.3928    3.4205    0.0000 H       1  UNL1        0.0271
     61 H           7.7230    2.7184    0.0000 H       1  UNL1        0.0235
     62 H           6.8779    2.4850    0.0000 H       1  UNL1        0.0235
     63 H           7.1113    1.6398    0.0000 H       1  UNL1        0.0235
     64 H           5.3787    0.6395    0.0000 H       1  UNL1        0.0235
     65 H           4.7635    1.2642    0.0000 H       1  UNL1        0.0235
     66 H           4.1388    0.6490    0.0000 H       1  UNL1        0.0235
     67 H           2.6718    0.2657    0.0000 H       1  UNL1        0.0342
     68 H           2.2647   -0.4210    0.0000 H       1  UNL1        0.0342
     69 H           2.7728   -2.5071    0.0000 H       1  UNL1        0.0239
     70 H           3.0030   -3.3531    0.0000 H       1  UNL1        0.0239
     71 H           3.8490   -3.1229    0.0000 H       1  UNL1        0.0239
     72 H           3.7752   -3.1232    0.0000 H       1  UNL1        0.0239
     73 H           4.6230   -3.3469    0.0000 H       1  UNL1        0.0239
     74 H           4.8466   -2.4991    0.0000 H       1  UNL1        0.0239
     75 H          12.0622    2.0130    0.0000 H       1  UNL1        0.0274
     76 H          12.0081    2.8881    0.0000 H       1  UNL1        0.0274
     77 H          11.1329    2.8340    0.0000 H       1  UNL1        0.0274
     78 H          10.8430    0.2613    0.0000 H       1  UNL1        0.0534
     79 H          11.8611    0.6028    0.0000 H       1  UNL1        0.0534
@<TRIPOS>BOND
     1     1    26    2
     2     2     3    1
     3     2     4    1
     4     2     9    1
     5     2    18    1
     6     3     5    1
     7     3    13    1
     8     3    19    1
     9     4     6    1
    10     4    10    1
    11     4    32    1
    12     5     7    1
    13     5    12    1
    14     5    33    1
    15     6     8    1
    16     6    15    1
    17     6    23    1
    18     7    11    1
    19     7    20    1
    20     7    24    1
    21     8    14    1
    22     8    17    1
    23     8    34    1
    24     9    14    1
    25     9    35    1
    26     9    36    1
    27    10    12    1
    28    10    37    1
    29    10    38    1
    30    11    16    1
    31    11    21    1
    32    11    39    1
    33    12    40    1
    34    12    41    1
    35    13    16    1
    36    13    42    1
    37    13    43    1
    38    14    44    1
    39    14    45    1
    40    15    22    1
    41    15    48    1
    42    15    49    1
    43    16    46    1
    44    16    47    1
    45    17    22    1
    46    17    27    1
    47    17    50    1
    48    18    51    1
    49    18    52    1
    50    18    53    1
    51    19    54    1
    52    19    55    1
    53    19    56    1
    54    20    25    1
    55    20    57    1
    56    20    58    1
    57    21    26    1
    58    21    28    1
    59    21    29    1
    60    22    59    1
    61    22    60    1
    62    23    61    1
    63    23    62    1
    64    23    63    1
    65    24    64    1
    66    24    65    1
    67    24    66    1
    68    25    26    1
    69    25    67    1
    70    25    68    1
    71    27    30    1
    72    27    31    2
    73    28    69    1
    74    28    70    1
    75    28    71    1
    76    29    72    1
    77    29    73    1
    78    29    74    1
    79    30    75    1
    80    30    76    1
    81    30    77    1
    82    31    78    1
    83    31    79    1
