@<TRIPOS>MOLECULE
IMPHY000553
 44 48 0 0 0
SMALL
GASTEIGER

@<TRIPOS>ATOM
      1 O           6.9742    0.5137    0.0000 O.3     1  UNL1       -0.4518
      2 O           6.9742    2.1232    0.0000 O.3     1  UNL1       -0.4489
      3 O           5.1619    3.3184    0.0000 O.3     1  UNL1       -0.4910
      4 O           6.9861   -0.7271    0.0000 O.3     1  UNL1       -0.5029
      5 O           7.0184   -2.8185    0.0000 O.3     1  UNL1       -0.4914
      6 N           2.5466    0.8398    0.0000 N.3     1  UNL1       -0.3087
      7 C           3.3859    0.3116    0.0000 C.3     1  UNL1        0.0379
      8 C           4.2959    0.8184    0.0000 C.ar    1  UNL1       -0.0119
      9 C           3.3779   -0.7300    0.0000 C.3     1  UNL1       -0.0074
     10 C           4.2959    1.8184    0.0000 C.ar    1  UNL1        0.0046
     11 C           5.1619    0.3184    0.0000 C.ar    1  UNL1        0.0366
     12 C           3.4377    2.3154    0.0000 C.3     1  UNL1       -0.0112
     13 C           2.5722    1.8312    0.0000 C.3     1  UNL1        0.0006
     14 C           4.2799   -1.2508    0.0000 C.ar    1  UNL1       -0.0340
     15 C           5.1780   -0.7231    0.0000 C.ar    1  UNL1        0.0344
     16 C           6.0279    0.8184    0.0000 C.ar    1  UNL1        0.1780
     17 C           5.1619    2.3184    0.0000 C.ar    1  UNL1        0.1688
     18 C           6.0279    1.8184    0.0000 C.ar    1  UNL1        0.2084
     19 C           6.1299   -1.2437    0.0000 C.ar    1  UNL1        0.1667
     20 C           4.2716   -2.3358    0.0000 C.ar    1  UNL1       -0.0542
     21 C           6.1466   -2.3286    0.0000 C.ar    1  UNL1        0.1619
     22 C           7.5578    1.3184    0.0000 C.3     1  UNL1        0.2334
     23 C           5.2112   -2.8783    0.0000 C.ar    1  UNL1       -0.0160
     24 C           6.0279    3.8184    0.0000 C.3     1  UNL1        0.0790
     25 C           7.0299   -3.8184    0.0000 C.3     1  UNL1        0.0790
     26 H           2.6402   -0.0964    0.0000 H       1  UNL1        0.0513
     27 H           2.7678   -0.6192    0.0000 H       1  UNL1        0.0332
     28 H           3.1643   -1.3121    0.0000 H       1  UNL1        0.0332
     29 H           3.8387    2.7882    0.0000 H       1  UNL1        0.0327
     30 H           3.0436    2.7941    0.0000 H       1  UNL1        0.0327
     31 H           2.0000    0.5472    0.0000 H       1  UNL1        0.1225
     32 H           2.3704    2.4175    0.0000 H       1  UNL1        0.0427
     33 H           1.9594    1.7368    0.0000 H       1  UNL1        0.0427
     34 H           3.7334   -2.6437    0.0000 H       1  UNL1        0.0622
     35 H           8.0186    0.9037    0.0000 H       1  UNL1        0.1166
     36 H           8.0186    1.7332    0.0000 H       1  UNL1        0.1166
     37 H           5.2136   -3.4983    0.0000 H       1  UNL1        0.0655
     38 H           7.5289   -1.0267    0.0000 H       1  UNL1        0.2923
     39 H           6.3379    3.2815    0.0000 H       1  UNL1        0.0660
     40 H           6.5649    4.1284    0.0000 H       1  UNL1        0.0660
     41 H           5.7179    4.3554    0.0000 H       1  UNL1        0.0660
     42 H           6.4100   -3.8256    0.0000 H       1  UNL1        0.0660
     43 H           7.0371   -4.4384    0.0000 H       1  UNL1        0.0660
     44 H           7.6499   -3.8113    0.0000 H       1  UNL1        0.0660
@<TRIPOS>BOND
     1     1    16    1
     2     1    22    1
     3     2    18    1
     4     2    22    1
     5     3    17    1
     6     3    24    1
     7     4    19    1
     8     4    38    1
     9     5    21    1
    10     5    25    1
    11     6     7    1
    12     6    13    1
    13     6    31    1
    14     7     8    1
    15     7     9    1
    16     7    26    1
    17     8    10   ar
    18     8    11   ar
    19     9    14    1
    20     9    27    1
    21     9    28    1
    22    10    12    1
    23    10    17   ar
    24    11    15    1
    25    11    16   ar
    26    12    13    1
    27    12    29    1
    28    12    30    1
    29    13    32    1
    30    13    33    1
    31    14    15   ar
    32    14    20   ar
    33    15    19   ar
    34    16    18   ar
    35    17    18   ar
    36    19    21   ar
    37    20    23   ar
    38    20    34    1
    39    21    23   ar
    40    22    35    1
    41    22    36    1
    42    23    37    1
    43    24    39    1
    44    24    40    1
    45    24    41    1
    46    25    42    1
    47    25    43    1
    48    25    44    1
