@<TRIPOS>MOLECULE
IMPHY010314
 26 28 0 0 0
SMALL
GASTEIGER

@<TRIPOS>ATOM
      1 O           4.6660   -1.0000    0.0000 O.2     1  UNL1       -0.4507
      2 O           6.4144    2.0346    0.0000 O.3     1  UNL1       -0.5058
      3 O           4.6660    2.0000    0.0000 O.2     1  UNL1       -0.2863
      4 O           2.9176   -2.0346    0.0000 O.3     1  UNL1       -0.5033
      5 O           8.1962   -1.0241    0.0000 O.3     1  UNL1       -0.5065
      6 C           5.5321    0.5000    0.0000 C.ar    1  UNL1        0.1061
      7 C           3.8000    0.5000    0.0000 C.ar    1  UNL1        0.0683
      8 C           5.5321   -0.5000    0.0000 C.ar    1  UNL1        0.1464
      9 C           3.8000   -0.5000    0.0000 C.ar    1  UNL1        0.1804
     10 C           4.6660    1.0000    0.0000 C.ar    1  UNL1        0.2038
     11 C           6.4260    1.0347    0.0000 C.ar    1  UNL1        0.1347
     12 C           6.4260   -1.0347    0.0000 C.ar    1  UNL1        0.0231
     13 C           2.9061    1.0347    0.0000 C.ar    1  UNL1       -0.0471
     14 C           2.9061   -1.0347    0.0000 C.ar    1  UNL1        0.1598
     15 C           7.3321    0.5208    0.0000 C.ar    1  UNL1        0.0223
     16 C           7.3321   -0.5208    0.0000 C.ar    1  UNL1        0.1239
     17 C           2.0000    0.5208    0.0000 C.ar    1  UNL1       -0.0574
     18 C           2.0000   -0.5208    0.0000 C.ar    1  UNL1       -0.0165
     19 H           6.4188   -1.6546    0.0000 H       1  UNL1        0.0691
     20 H           2.9132    1.6546    0.0000 H       1  UNL1        0.0626
     21 H           7.8678    0.8329    0.0000 H       1  UNL1        0.0691
     22 H           1.4643    0.8329    0.0000 H       1  UNL1        0.0619
     23 H           1.4643   -0.8329    0.0000 H       1  UNL1        0.0655
     24 H           6.9478    2.3508    0.0000 H       1  UNL1        0.2922
     25 H           2.3843   -2.3508    0.0000 H       1  UNL1        0.2923
     26 H           8.7343   -0.7162    0.0000 H       1  UNL1        0.2921
@<TRIPOS>BOND
     1     1     8   ar
     2     1     9   ar
     3     2    11    1
     4     2    24    1
     5     3    10    2
     6     4    14    1
     7     4    25    1
     8     5    16    1
     9     5    26    1
    10     6     8   ar
    11     6    10   ar
    12     6    11   ar
    13     7     9   ar
    14     7    10   ar
    15     7    13   ar
    16     8    12   ar
    17     9    14   ar
    18    11    15   ar
    19    12    16   ar
    20    12    19    1
    21    13    17   ar
    22    13    20    1
    23    14    18   ar
    24    15    16   ar
    25    15    21    1
    26    17    18   ar
    27    17    22    1
    28    18    23    1
