@<TRIPOS>MOLECULE
IMPHY017339
 17 16 0 0 0
SMALL
GASTEIGER

@<TRIPOS>ATOM
      1 S           2.8660    0.7500    0.0000 S.3     1  UNL1       -0.1494
      2 S           4.5981    0.7500    0.0000 S.3     1  UNL1       -0.0795
      3 S           5.4641    0.2500    0.0000 S.3     1  UNL1       -0.0955
      4 C           3.7320    0.2500    0.0000 C.3     1  UNL1        0.0580
      5 C           3.7320   -0.7500    0.0000 C.3     1  UNL1       -0.0433
      6 C           2.0000    0.2500    0.0000 C.3     1  UNL1       -0.0170
      7 C           6.3301    0.7500    0.0000 C.3     1  UNL1       -0.0078
      8 H           4.4682   -0.1750    0.0000 H       1  UNL1        0.0531
      9 H           3.1120   -0.7500    0.0000 H       1  UNL1        0.0249
     10 H           3.7320   -1.3700    0.0000 H       1  UNL1        0.0249
     11 H           4.3520   -0.7500    0.0000 H       1  UNL1        0.0249
     12 H           1.6900    0.7869    0.0000 H       1  UNL1        0.0341
     13 H           1.4631   -0.0600    0.0000 H       1  UNL1        0.0341
     14 H           2.3100   -0.2869    0.0000 H       1  UNL1        0.0341
     15 H           6.6401    0.2131    0.0000 H       1  UNL1        0.0349
     16 H           6.8671    1.0600    0.0000 H       1  UNL1        0.0349
     17 H           6.0201    1.2869    0.0000 H       1  UNL1        0.0349
@<TRIPOS>BOND
     1     1     4    1
     2     1     6    1
     3     2     3    1
     4     2     4    1
     5     3     7    1
     6     4     5    1
     7     4     8    1
     8     5     9    1
     9     5    10    1
    10     5    11    1
    11     6    12    1
    12     6    13    1
    13     6    14    1
    14     7    15    1
    15     7    16    1
    16     7    17    1
