@<TRIPOS>MOLECULE
IMPHY000271
 77 80 0 0 0
SMALL
GASTEIGER

@<TRIPOS>ATOM
      1 O           7.7331    1.7741    0.0000 O.3     1  UNL1       -0.4577
      2 O           8.2331    6.0359    0.0000 O.2     1  UNL1       -0.4705
      3 O           9.7331    5.1699    0.0000 O.3     1  UNL1       -0.3575
      4 O           5.2331    6.0359    0.0000 O.3     1  UNL1       -0.4646
      5 O           6.8671   -2.7259    0.0000 O.3     1  UNL1       -0.3093
      6 O           7.7331   -1.2259    0.0000 O.2     1  UNL1       -0.4699
      7 O           5.1350   -2.7259    0.0000 O.3     1  UNL1       -0.3404
      8 O           5.2331    4.3039    0.0000 O.2     1  UNL1       -0.2452
      9 O           6.0010    1.7741    0.0000 O.2     1  UNL1       -0.2452
     10 O           6.8671   -4.7259    0.0000 O.3     1  UNL1       -0.3841
     11 O           5.1350   -5.7259    0.0000 O.3     1  UNL1       -0.3864
     12 O           3.4030   -4.7259    0.0000 O.3     1  UNL1       -0.3865
     13 O           2.5369   -3.2259    0.0000 O.3     1  UNL1       -0.3924
     14 O           3.6351    1.1402    0.0000 O.2     1  UNL1       -0.3010
     15 C           8.2331    4.3039    0.0000 C.3     1  UNL1        0.0345
     16 C           8.5378    3.3577    0.0000 C.3     1  UNL1        0.0024
     17 C           7.2331    4.3039    0.0000 C.3     1  UNL1        0.0060
     18 C           7.7331    2.7741    0.0000 C.3     1  UNL1        0.1070
     19 C           6.9284    3.3577    0.0000 C.3     1  UNL1       -0.0078
     20 C           8.7331    5.1699    0.0000 C.3     1  UNL1        0.2022
     21 C           6.7331    5.1699    0.0000 C.2     1  UNL1        0.0744
     22 C           9.4883    3.0470    0.0000 C.3     1  UNL1       -0.0586
     23 C           7.2331    6.0359    0.0000 C.2     1  UNL1        0.0981
     24 C           5.7331    5.1699    0.0000 C.2     1  UNL1        0.3381
     25 C           6.8671    1.2741    0.0000 C.2     1  UNL1        0.3387
     26 C           6.0010   -0.2259    0.0000 C.3     1  UNL1        0.0121
     27 C           6.8671    0.2741    0.0000 C.2     1  UNL1        0.0750
     28 C           6.0010   -1.2259    0.0000 C.3     1  UNL1        0.0470
     29 C           6.8671   -1.7259    0.0000 C.3     1  UNL1        0.2102
     30 C           6.0010   -3.2259    0.0000 C.3     1  UNL1        0.1918
     31 C           6.0010   -4.2259    0.0000 C.3     1  UNL1        0.1342
     32 C           5.1350   -4.7259    0.0000 C.3     1  UNL1        0.1141
     33 C           5.1350    0.2741    0.0000 C.3     1  UNL1        0.0106
     34 C           4.2690   -4.2259    0.0000 C.3     1  UNL1        0.1119
     35 C           4.2690   -3.2259    0.0000 C.3     1  UNL1        0.1130
     36 C           7.7331   -0.2259    0.0000 C.2     1  UNL1        0.0981
     37 C           5.1350   -1.7259    0.0000 C.2     1  UNL1       -0.0816
     38 C           3.4030   -2.7259    0.0000 C.3     1  UNL1        0.0730
     39 C           4.2331    6.0359    0.0000 C.3     1  UNL1        0.0820
     40 C           4.1350    0.2741    0.0000 C.2     1  UNL1        0.1209
     41 C           4.2690   -1.2259    0.0000 C.2     1  UNL1       -0.1022
     42 H           9.0783    4.2139    0.0000 H       1  UNL1        0.0371
     43 H           8.9772    3.7951    0.0000 H       1  UNL1        0.0339
     44 H           6.3879    4.2139    0.0000 H       1  UNL1        0.0358
     45 H           7.1808    2.4924    0.0000 H       1  UNL1        0.0737
     46 H           6.3614    3.6087    0.0000 H       1  UNL1        0.0307
     47 H           6.6191    2.8203    0.0000 H       1  UNL1        0.0307
     48 H           9.0431    4.6330    0.0000 H       1  UNL1        0.1056
     49 H           9.2957    2.4577    0.0000 H       1  UNL1        0.0234
     50 H          10.0777    2.8544    0.0000 H       1  UNL1        0.0234
     51 H           9.6810    3.6363    0.0000 H       1  UNL1        0.0234
     52 H           6.9231    6.5729    0.0000 H       1  UNL1        0.1029
     53 H          10.0431    5.7068    0.0000 H       1  UNL1        0.2135
     54 H           6.0010    0.3941    0.0000 H       1  UNL1        0.0364
     55 H           6.0010   -1.8459    0.0000 H       1  UNL1        0.0410
     56 H           7.4040   -2.0359    0.0000 H       1  UNL1        0.1062
     57 H           6.0010   -2.6059    0.0000 H       1  UNL1        0.0939
     58 H           6.0010   -4.8459    0.0000 H       1  UNL1        0.0671
     59 H           4.5981   -5.0359    0.0000 H       1  UNL1        0.0648
     60 H           3.7320   -3.9159    0.0000 H       1  UNL1        0.0647
     61 H           5.6100    0.6726    0.0000 H       1  UNL1        0.0345
     62 H           4.9745   -0.3248    0.0000 H       1  UNL1        0.0345
     63 H           4.2690   -2.6059    0.0000 H       1  UNL1        0.0647
     64 H           8.2700    0.0841    0.0000 H       1  UNL1        0.1029
     65 H           5.1350   -2.3459    0.0000 H       1  UNL1        0.0571
     66 H           3.8015   -2.2510    0.0000 H       1  UNL1        0.0584
     67 H           3.0044   -2.2510    0.0000 H       1  UNL1        0.0584
     68 H           3.8250   -0.2629    0.0000 H       1  UNL1        0.1026
     69 H           4.2331    6.6559    0.0000 H       1  UNL1        0.0661
     70 H           3.6131    6.0359    0.0000 H       1  UNL1        0.0661
     71 H           4.2331    5.4159    0.0000 H       1  UNL1        0.0661
     72 H           7.4040   -4.4159    0.0000 H       1  UNL1        0.2101
     73 H           5.6720   -6.0359    0.0000 H       1  UNL1        0.2100
     74 H           3.4030   -5.3459    0.0000 H       1  UNL1        0.2100
     75 H           4.2690   -0.6059    0.0000 H       1  UNL1        0.0532
     76 H           3.7320   -1.5359    0.0000 H       1  UNL1        0.0532
     77 H           2.0000   -2.9159    0.0000 H       1  UNL1        0.2095
@<TRIPOS>BOND
     1    18     1    1
     2     1    25    1
     3     2    20    1
     4     2    23    1
     5    20     3    1
     6     3    53    1
     7     4    24    1
     8     4    39    1
     9    29     5    1
    10    30     5    1
    11     6    29    1
    12     6    36    1
    13     7    30    1
    14     7    35    1
    15     8    24    2
    16     9    25    2
    17    31    10    1
    18    10    72    1
    19    32    11    1
    20    11    73    1
    21    34    12    1
    22    12    74    1
    23    13    38    1
    24    13    77    1
    25    14    40    2
    26    15    16    1
    27    15    17    1
    28    15    20    1
    29    15    42    1
    30    16    18    1
    31    16    22    1
    32    16    43    1
    33    17    19    1
    34    17    21    1
    35    17    44    1
    36    18    19    1
    37    18    45    1
    38    19    46    1
    39    19    47    1
    40    20    48    1
    41    21    23    2
    42    21    24    1
    43    22    49    1
    44    22    50    1
    45    22    51    1
    46    23    52    1
    47    25    27    1
    48    26    27    1
    49    26    28    1
    50    26    33    1
    51    26    54    1
    52    27    36    2
    53    28    29    1
    54    28    37    1
    55    28    55    1
    56    29    56    1
    57    30    31    1
    58    30    57    1
    59    31    32    1
    60    31    58    1
    61    32    34    1
    62    32    59    1
    63    33    40    1
    64    33    61    1
    65    33    62    1
    66    34    35    1
    67    34    60    1
    68    35    38    1
    69    35    63    1
    70    36    64    1
    71    37    41    2
    72    37    65    1
    73    38    66    1
    74    38    67    1
    75    39    69    1
    76    39    70    1
    77    39    71    1
    78    40    68    1
    79    41    75    1
    80    41    76    1
