@<TRIPOS>MOLECULE
IMPHY009701
 26 26 0 0 0
SMALL
GASTEIGER

@<TRIPOS>ATOM
      1 O           2.0000    0.5000    0.0000 O.2     1  UNL1       -0.2921
      2 C           3.7320    1.5000    0.0000 C.3     1  UNL1       -0.0463
      3 C           3.7320    0.5000    0.0000 C.3     1  UNL1        0.0104
      4 C           4.5981    2.0000    0.0000 C.3     1  UNL1       -0.0555
      5 C           2.8660    0.0000    0.0000 C.2     1  UNL1        0.1632
      6 C           2.8660   -1.0000    0.0000 C.ar    1  UNL1        0.0174
      7 C           4.5981    3.0000    0.0000 C.3     1  UNL1       -0.0653
      8 C           2.0000   -1.5000    0.0000 C.ar    1  UNL1       -0.0513
      9 C           3.7320   -1.5000    0.0000 C.ar    1  UNL1       -0.0513
     10 C           2.0000   -2.5000    0.0000 C.ar    1  UNL1       -0.0611
     11 C           3.7320   -2.5000    0.0000 C.ar    1  UNL1       -0.0611
     12 C           2.8660   -3.0000    0.0000 C.ar    1  UNL1       -0.0617
     13 H           3.5200    2.0826    0.0000 H       1  UNL1        0.0269
     14 H           3.1215    1.3923    0.0000 H       1  UNL1        0.0269
     15 H           3.9441   -0.0826    0.0000 H       1  UNL1        0.0345
     16 H           4.3426    0.6077    0.0000 H       1  UNL1        0.0345
     17 H           4.8101    1.4174    0.0000 H       1  UNL1        0.0263
     18 H           5.2087    2.1077    0.0000 H       1  UNL1        0.0263
     19 H           5.2181    3.0000    0.0000 H       1  UNL1        0.0230
     20 H           4.5981    3.6200    0.0000 H       1  UNL1        0.0230
     21 H           3.9781    3.0000    0.0000 H       1  UNL1        0.0230
     22 H           1.4631   -1.1900    0.0000 H       1  UNL1        0.0624
     23 H           4.2690   -1.1900    0.0000 H       1  UNL1        0.0624
     24 H           1.4631   -2.8100    0.0000 H       1  UNL1        0.0618
     25 H           4.2690   -2.8100    0.0000 H       1  UNL1        0.0618
     26 H           2.8660   -3.6200    0.0000 H       1  UNL1        0.0618
@<TRIPOS>BOND
     1     1     5    2
     2     2     3    1
     3     2     4    1
     4     2    13    1
     5     2    14    1
     6     3     5    1
     7     3    15    1
     8     3    16    1
     9     4     7    1
    10     4    17    1
    11     4    18    1
    12     5     6    1
    13     6     8   ar
    14     6     9   ar
    15     7    19    1
    16     7    20    1
    17     7    21    1
    18     8    10   ar
    19     8    22    1
    20     9    11   ar
    21     9    23    1
    22    10    12   ar
    23    10    24    1
    24    11    12   ar
    25    11    25    1
    26    12    26    1
