@<TRIPOS>MOLECULE
IMPHY009387
 37 38 0 0 0
SMALL
GASTEIGER

@<TRIPOS>ATOM
      1 O           5.1350   -1.0053    0.0000 O.3     1  UNL1       -0.3839
      2 O           2.5369   -0.5053    0.0000 O.3     1  UNL1       -0.3836
      3 O           2.5369    1.4947    0.0000 O.2     1  UNL1       -0.2899
      4 C           5.1350   -0.0053    0.0000 C.3     1  UNL1        0.0933
      5 C           4.2690   -0.5053    0.0000 C.3     1  UNL1        0.0221
      6 C           6.0290   -0.5399    0.0000 C.3     1  UNL1       -0.0132
      7 C           6.9350   -0.0261    0.0000 C.3     1  UNL1       -0.0172
      8 C           5.1350    0.9947    0.0000 C.2     1  UNL1       -0.0347
      9 C           6.9350    1.0156    0.0000 C.3     1  UNL1       -0.0426
     10 C           6.0290    1.5294    0.0000 C.3     1  UNL1       -0.0281
     11 C           3.4030   -0.0053    0.0000 C.3     1  UNL1        0.1224
     12 C           4.2690    1.4947    0.0000 C.2     1  UNL1       -0.0146
     13 C           4.2690   -1.5053    0.0000 C.3     1  UNL1       -0.0567
     14 C           3.4030    0.9947    0.0000 C.2     1  UNL1        0.1847
     15 C           7.7991   -0.5294    0.0000 C.2     1  UNL1       -0.0765
     16 C           8.6671   -0.0328    0.0000 C.3     1  UNL1       -0.0438
     17 C           7.7953   -1.5294    0.0000 C.2     1  UNL1       -0.0994
     18 H           3.7320   -0.8153    0.0000 H       1  UNL1        0.0359
     19 H           5.6244   -1.0097    0.0000 H       1  UNL1        0.0302
     20 H           6.4226   -1.0189    0.0000 H       1  UNL1        0.0302
     21 H           7.4726    0.2829    0.0000 H       1  UNL1        0.0347
     22 H           7.5459    0.9095    0.0000 H       1  UNL1        0.0274
     23 H           7.1441    1.5992    0.0000 H       1  UNL1        0.0274
     24 H           6.4226    2.0084    0.0000 H       1  UNL1        0.0311
     25 H           5.6244    1.9992    0.0000 H       1  UNL1        0.0311
     26 H           2.8660    0.3047    0.0000 H       1  UNL1        0.0680
     27 H           4.2690    2.1147    0.0000 H       1  UNL1        0.0654
     28 H           3.6490   -1.5053    0.0000 H       1  UNL1        0.0234
     29 H           4.2690   -2.1253    0.0000 H       1  UNL1        0.0234
     30 H           4.8890   -1.5053    0.0000 H       1  UNL1        0.0234
     31 H           5.6720   -1.3153    0.0000 H       1  UNL1        0.2106
     32 H           2.0000   -0.1953    0.0000 H       1  UNL1        0.2104
     33 H           8.9750   -0.5709    0.0000 H       1  UNL1        0.0274
     34 H           9.2052    0.2752    0.0000 H       1  UNL1        0.0274
     35 H           8.3591    0.5054    0.0000 H       1  UNL1        0.0274
     36 H           7.2571   -1.8373    0.0000 H       1  UNL1        0.0534
     37 H           8.3310   -1.8415    0.0000 H       1  UNL1        0.0534
@<TRIPOS>BOND
     1     4     1    1
     2     1    31    1
     3    11     2    1
     4     2    32    1
     5     3    14    2
     6     4     5    1
     7     4     6    1
     8     4     8    1
     9     5    11    1
    10     5    13    1
    11     5    18    1
    12     6     7    1
    13     6    19    1
    14     6    20    1
    15     7     9    1
    16     7    15    1
    17     7    21    1
    18     8    10    1
    19     8    12    2
    20     9    10    1
    21     9    22    1
    22     9    23    1
    23    10    24    1
    24    10    25    1
    25    11    14    1
    26    11    26    1
    27    12    14    1
    28    12    27    1
    29    13    28    1
    30    13    29    1
    31    13    30    1
    32    15    16    1
    33    15    17    2
    34    16    33    1
    35    16    34    1
    36    16    35    1
    37    17    36    1
    38    17    37    1
