@<TRIPOS>MOLECULE
IMPHY010142
 42 46 0 0 0
SMALL
GASTEIGER

@<TRIPOS>ATOM
      1 O           5.4390    0.4860    0.0000 O.3     1  UNL1       -0.3893
      2 O           6.2596   -2.6176    0.0000 O.3     1  UNL1       -0.3730
      3 O           8.9116    1.9276    0.0000 O.3     1  UNL1       -0.3757
      4 O           2.6079    0.2207    0.0000 O.3     1  UNL1       -0.4526
      5 O           2.6079   -1.4558    0.0000 O.3     1  UNL1       -0.4526
      6 N           7.1256   -1.1176    0.0000 N.3     1  UNL1       -0.2671
      7 C           6.2596    0.3825    0.0000 C.3     1  UNL1        0.0571
      8 C           7.1256   -0.1175    0.0000 C.3     1  UNL1        0.0312
      9 C           6.1461   -0.2211    0.0000 C.3     1  UNL1        0.0824
     10 C           6.5462   -0.9140    0.0000 C.3     1  UNL1        0.0290
     11 C           8.0356    0.3893    0.0000 C.3     1  UNL1       -0.0060
     12 C           5.3935   -0.1175    0.0000 C.ar    1  UNL1       -0.0228
     13 C           6.2596   -1.6176    0.0000 C.3     1  UNL1        0.1355
     14 C           6.2435    1.4240    0.0000 C.2     1  UNL1       -0.0711
     15 C           5.3935   -1.1176    0.0000 C.ar    1  UNL1        0.0035
     16 C           8.0436    1.4309    0.0000 C.3     1  UNL1        0.0779
     17 C           7.1415    1.9517    0.0000 C.2     1  UNL1       -0.0586
     18 C           4.4996    0.4171    0.0000 C.ar    1  UNL1       -0.0116
     19 C           4.4996   -1.6522    0.0000 C.ar    1  UNL1       -0.0089
     20 C           3.5935   -0.0967    0.0000 C.ar    1  UNL1        0.1665
     21 C           3.5935   -1.1384    0.0000 C.ar    1  UNL1        0.1666
     22 C           8.9154    2.9276    0.0000 C.3     1  UNL1        0.0372
     23 C           2.0000   -0.6175    0.0000 C.3     1  UNL1        0.2332
     24 H           7.8617   -0.5425    0.0000 H       1  UNL1        0.0477
     25 H           5.6543   -0.5986    0.0000 H       1  UNL1        0.0618
     26 H           5.9434   -1.0592    0.0000 H       1  UNL1        0.0453
     27 H           6.5147   -1.5332    0.0000 H       1  UNL1        0.0453
     28 H           8.2401   -0.1960    0.0000 H       1  UNL1        0.0309
     29 H           8.6472    0.4907    0.0000 H       1  UNL1        0.0309
     30 H           5.7226   -1.9276    0.0000 H       1  UNL1        0.0820
     31 H           5.7030    1.7277    0.0000 H       1  UNL1        0.0580
     32 H           8.0448    2.0509    0.0000 H       1  UNL1        0.0641
     33 H           7.1391    2.5717    0.0000 H       1  UNL1        0.0595
     34 H           4.5068    1.0371    0.0000 H       1  UNL1        0.0658
     35 H           5.5995    1.0848    0.0000 H       1  UNL1        0.2099
     36 H           4.5068   -2.2722    0.0000 H       1  UNL1        0.0659
     37 H           6.7965   -2.9276    0.0000 H       1  UNL1        0.2118
     38 H           9.5354    2.9252    0.0000 H       1  UNL1        0.0524
     39 H           8.9178    3.5475    0.0000 H       1  UNL1        0.0524
     40 H           8.2954    2.9299    0.0000 H       1  UNL1        0.0524
     41 H           1.5391   -0.2028    0.0000 H       1  UNL1        0.1166
     42 H           1.5391   -1.0323    0.0000 H       1  UNL1        0.1166
@<TRIPOS>BOND
     1     9     1    1
     2     1    35    1
     3    13     2    1
     4     2    37    1
     5    16     3    1
     6     3    22    1
     7     4    20    1
     8     4    23    1
     9     5    21    1
    10     5    23    1
    11     6     8    1
    12     6    10    1
    13     6    13    1
    14     7     8    1
    15     7     9    1
    16     7    12    1
    17     7    14    1
    18     8    11    1
    19     8    24    1
    20     9    10    1
    21     9    25    1
    22    10    26    1
    23    10    27    1
    24    11    16    1
    25    11    28    1
    26    11    29    1
    27    12    15   ar
    28    12    18   ar
    29    13    15    1
    30    13    30    1
    31    14    17    2
    32    14    31    1
    33    15    19   ar
    34    16    17    1
    35    16    32    1
    36    17    33    1
    37    18    20   ar
    38    18    34    1
    39    19    21   ar
    40    19    36    1
    41    20    21   ar
    42    22    38    1
    43    22    39    1
    44    22    40    1
    45    23    41    1
    46    23    42    1
