@<TRIPOS>MOLECULE
IMPHY001641
 74 78 0 0 0
SMALL
GASTEIGER

@<TRIPOS>ATOM
      1 O           6.8671   -1.9000    0.0000 O.3     1  UNL1       -0.3445
      2 O           5.0830    2.1484    0.0000 O.3     1  UNL1       -0.4562
      3 O           4.2308    0.5969    0.0000 O.2     1  UNL1       -0.2505
      4 O           5.1350   -1.9000    0.0000 O.3     1  UNL1       -0.3405
      5 O           9.4756   -2.4446    0.0000 O.3     1  UNL1       -0.4647
      6 O           7.7437   -2.4246    0.0000 O.2     1  UNL1       -0.2453
      7 O           6.8671   -3.9000    0.0000 O.3     1  UNL1       -0.3841
      8 O           5.4949    5.2100    0.0000 O.2     1  UNL1       -0.4706
      9 O           5.1350   -4.9000    0.0000 O.3     1  UNL1       -0.3864
     10 O           3.4030   -3.9000    0.0000 O.3     1  UNL1       -0.3865
     11 O           2.5369   -2.4000    0.0000 O.3     1  UNL1       -0.3924
     12 C           6.8671    1.1000    0.0000 C.3     1  UNL1       -0.0117
     13 C           7.7331    0.6000    0.0000 C.3     1  UNL1       -0.0225
     14 C           7.7331   -0.4000    0.0000 C.3     1  UNL1        0.0290
     15 C           6.0010    0.6000    0.0000 C.3     1  UNL1        0.0646
     16 C           6.8671   -0.9000    0.0000 C.3     1  UNL1        0.0724
     17 C           6.0010   -0.4000    0.0000 C.3     1  UNL1       -0.0122
     18 C           6.8831    2.1415    0.0000 C.3     1  UNL1       -0.0049
     19 C           8.6270    1.1347    0.0000 C.3     1  UNL1       -0.0453
     20 C           8.6270   -0.9347    0.0000 C.2     1  UNL1        0.0413
     21 C           7.7331    1.6000    0.0000 C.3     1  UNL1       -0.0584
     22 C           7.7331   -1.4000    0.0000 C.3     1  UNL1       -0.0527
     23 C           5.9851    2.6693    0.0000 C.3     1  UNL1        0.1315
     24 C           9.5331    0.6208    0.0000 C.3     1  UNL1       -0.0337
     25 C           5.0910    1.1068    0.0000 C.2     1  UNL1        0.3114
     26 C           9.5331   -0.4208    0.0000 C.2     1  UNL1       -0.0734
     27 C           6.0010   -2.4000    0.0000 C.3     1  UNL1        0.1882
     28 C           8.6155   -1.9346    0.0000 C.2     1  UNL1        0.3352
     29 C           5.9889    3.6692    0.0000 C.ar    1  UNL1        0.0304
     30 C           6.0010   -3.4000    0.0000 C.3     1  UNL1        0.1341
     31 C           5.1350   -3.9000    0.0000 C.3     1  UNL1        0.1141
     32 C           4.2690   -2.4000    0.0000 C.3     1  UNL1        0.1130
     33 C           6.8002    4.2539    0.0000 C.ar    1  UNL1       -0.0172
     34 C           5.1822    4.2602    0.0000 C.ar    1  UNL1        0.0983
     35 C           4.2690   -3.4000    0.0000 C.3     1  UNL1        0.1119
     36 C           6.4949    5.2062    0.0000 C.ar    1  UNL1        0.0921
     37 C           3.4030   -1.9000    0.0000 C.3     1  UNL1        0.0730
     38 C           9.4641   -3.4445    0.0000 C.3     1  UNL1        0.0820
     39 H           8.4725    0.1807    0.0000 H       1  UNL1        0.0316
     40 H           5.2682    0.1693    0.0000 H       1  UNL1        0.0420
     41 H           6.3301   -1.2100    0.0000 H       1  UNL1        0.0606
     42 H           5.3905   -0.2923    0.0000 H       1  UNL1        0.0298
     43 H           5.7890   -0.9826    0.0000 H       1  UNL1        0.0298
     44 H           7.4923    2.0260    0.0000 H       1  UNL1        0.0310
     45 H           7.1012    2.7219    0.0000 H       1  UNL1        0.0310
     46 H           9.0207    1.6137    0.0000 H       1  UNL1        0.0271
     47 H           8.2224    1.6044    0.0000 H       1  UNL1        0.0271
     48 H           8.0431    1.0631    0.0000 H       1  UNL1        0.0235
     49 H           8.2700    1.9100    0.0000 H       1  UNL1        0.0235
     50 H           7.4231    2.1369    0.0000 H       1  UNL1        0.0235
     51 H           7.1131   -1.4000    0.0000 H       1  UNL1        0.0239
     52 H           7.7331   -2.0200    0.0000 H       1  UNL1        0.0239
     53 H           8.3531   -1.4000    0.0000 H       1  UNL1        0.0239
     54 H           5.4488    2.9803    0.0000 H       1  UNL1        0.0786
     55 H          10.1440    0.5147    0.0000 H       1  UNL1        0.0308
     56 H           9.7422    1.2045    0.0000 H       1  UNL1        0.0308
     57 H          10.0688   -0.7329    0.0000 H       1  UNL1        0.0577
     58 H           6.0010   -1.7800    0.0000 H       1  UNL1        0.0937
     59 H           6.0010   -4.0200    0.0000 H       1  UNL1        0.0671
     60 H           4.5981   -4.2100    0.0000 H       1  UNL1        0.0648
     61 H           4.2690   -1.7800    0.0000 H       1  UNL1        0.0647
     62 H           7.3891    4.0601    0.0000 H       1  UNL1        0.0653
     63 H           4.5918    4.0708    0.0000 H       1  UNL1        0.1033
     64 H           3.7320   -3.0900    0.0000 H       1  UNL1        0.0647
     65 H           6.8612    5.7063    0.0000 H       1  UNL1        0.1029
     66 H           6.8671   -4.5200    0.0000 H       1  UNL1        0.2101
     67 H           3.8015   -1.4251    0.0000 H       1  UNL1        0.0584
     68 H           3.0044   -1.4251    0.0000 H       1  UNL1        0.0584
     69 H           8.8441   -3.4373    0.0000 H       1  UNL1        0.0661
     70 H           9.4569   -4.0645    0.0000 H       1  UNL1        0.0661
     71 H          10.0840   -3.4517    0.0000 H       1  UNL1        0.0661
     72 H           4.5981   -5.2100    0.0000 H       1  UNL1        0.2100
     73 H           3.4030   -4.5200    0.0000 H       1  UNL1        0.2100
     74 H           2.0000   -2.0900    0.0000 H       1  UNL1        0.2095
@<TRIPOS>BOND
     1    16     1    1
     2    27     1    1
     3     2    23    1
     4     2    25    1
     5     3    25    2
     6     4    27    1
     7     4    32    1
     8     5    28    1
     9     5    38    1
    10     6    28    2
    11    30     7    1
    12     7    66    1
    13     8    34   ar
    14     8    36   ar
    15    31     9    1
    16     9    72    1
    17    35    10    1
    18    10    73    1
    19    11    37    1
    20    11    74    1
    21    12    13    1
    22    12    15    1
    23    12    18    1
    24    12    21    1
    25    13    14    1
    26    13    19    1
    27    13    39    1
    28    14    16    1
    29    14    20    1
    30    14    22    1
    31    15    17    1
    32    15    25    1
    33    15    40    1
    34    16    17    1
    35    16    41    1
    36    17    42    1
    37    17    43    1
    38    18    23    1
    39    18    44    1
    40    18    45    1
    41    19    24    1
    42    19    46    1
    43    19    47    1
    44    20    26    2
    45    20    28    1
    46    21    48    1
    47    21    49    1
    48    21    50    1
    49    22    51    1
    50    22    52    1
    51    22    53    1
    52    23    29    1
    53    23    54    1
    54    24    26    1
    55    24    55    1
    56    24    56    1
    57    26    57    1
    58    27    30    1
    59    27    58    1
    60    29    33   ar
    61    29    34   ar
    62    30    31    1
    63    30    59    1
    64    31    35    1
    65    31    60    1
    66    32    35    1
    67    32    37    1
    68    32    61    1
    69    33    36   ar
    70    33    62    1
    71    34    63    1
    72    35    64    1
    73    36    65    1
    74    37    67    1
    75    37    68    1
    76    38    69    1
    77    38    70    1
    78    38    71    1
