@<TRIPOS>MOLECULE
IMPHY002494
 52 52 0 0 0
SMALL
GASTEIGER

@<TRIPOS>ATOM
      1 O           2.3100   -2.1651    0.0000 O.3     1  UNL1       -0.4773
      2 O           3.8100   -3.0311    0.0000 O.2     1  UNL1       -0.2455
      3 C           6.3100    1.2990    0.0000 C.3     1  UNL1       -0.0167
      4 C           6.8100    0.4330    0.0000 C.3     1  UNL1       -0.0426
      5 C           5.3100    1.2990    0.0000 C.3     1  UNL1       -0.0280
      6 C           6.3100   -0.4330    0.0000 C.3     1  UNL1       -0.0315
      7 C           6.8100    2.1651    0.0000 C.2     1  UNL1       -0.0763
      8 C           6.8100   -1.2990    0.0000 C.2     1  UNL1       -0.0765
      9 C           4.8100    2.1651    0.0000 C.2     1  UNL1       -0.0845
     10 C           3.8100    2.1651    0.0000 C.2     1  UNL1       -0.0762
     11 C           3.3100    1.2990    0.0000 C.3     1  UNL1       -0.0286
     12 C           6.3100   -2.1651    0.0000 C.2     1  UNL1       -0.0847
     13 C           5.3100   -2.1651    0.0000 C.3     1  UNL1       -0.0303
     14 C           3.8100    0.4330    0.0000 C.3     1  UNL1       -0.0303
     15 C           7.8100    2.1651    0.0000 C.3     1  UNL1       -0.0438
     16 C           4.8100   -1.2990    0.0000 C.3     1  UNL1       -0.0178
     17 C           7.8100   -1.2990    0.0000 C.3     1  UNL1       -0.0438
     18 C           3.8100   -1.2990    0.0000 C.2     1  UNL1        0.0328
     19 C           6.3100    3.0311    0.0000 C.2     1  UNL1       -0.0994
     20 C           3.3100   -0.4330    0.0000 C.2     1  UNL1       -0.0738
     21 C           3.3100    3.0311    0.0000 C.3     1  UNL1       -0.0438
     22 C           3.3100   -2.1651    0.0000 C.2     1  UNL1        0.3325
     23 H           6.9300    1.2990    0.0000 H       1  UNL1        0.0348
     24 H           7.2850    0.0345    0.0000 H       1  UNL1        0.0274
     25 H           7.2850    0.8315    0.0000 H       1  UNL1        0.0274
     26 H           4.7274    1.0870    0.0000 H       1  UNL1        0.0313
     27 H           5.4177    0.6885    0.0000 H       1  UNL1        0.0313
     28 H           5.8350   -0.0345    0.0000 H       1  UNL1        0.0310
     29 H           5.8350   -0.8315    0.0000 H       1  UNL1        0.0310
     30 H           5.1200    2.7020    0.0000 H       1  UNL1        0.0572
     31 H           2.8350    1.6976    0.0000 H       1  UNL1        0.0313
     32 H           2.8350    0.9005    0.0000 H       1  UNL1        0.0313
     33 H           6.6200   -2.7020    0.0000 H       1  UNL1        0.0572
     34 H           4.7274   -2.3771    0.0000 H       1  UNL1        0.0311
     35 H           5.4177   -2.7756    0.0000 H       1  UNL1        0.0311
     36 H           4.2850    0.0345    0.0000 H       1  UNL1        0.0311
     37 H           4.2850    0.8315    0.0000 H       1  UNL1        0.0311
     38 H           7.8100    1.5451    0.0000 H       1  UNL1        0.0274
     39 H           8.4300    2.1651    0.0000 H       1  UNL1        0.0274
     40 H           7.8100    2.7851    0.0000 H       1  UNL1        0.0274
     41 H           5.3926   -1.0870    0.0000 H       1  UNL1        0.0318
     42 H           4.7023   -0.6885    0.0000 H       1  UNL1        0.0318
     43 H           7.8100   -1.9190    0.0000 H       1  UNL1        0.0274
     44 H           8.4300   -1.2990    0.0000 H       1  UNL1        0.0274
     45 H           7.8100   -0.6790    0.0000 H       1  UNL1        0.0274
     46 H           6.6200    3.5680    0.0000 H       1  UNL1        0.0534
     47 H           5.6900    3.0311    0.0000 H       1  UNL1        0.0534
     48 H           2.6900   -0.4330    0.0000 H       1  UNL1        0.0577
     49 H           3.8469    3.3411    0.0000 H       1  UNL1        0.0274
     50 H           3.0000    3.5680    0.0000 H       1  UNL1        0.0274
     51 H           2.7731    2.7211    0.0000 H       1  UNL1        0.0274
     52 H           2.0000   -2.7020    0.0000 H       1  UNL1        0.2954
@<TRIPOS>BOND
     1     1    22    1
     2     1    52    1
     3     2    22    2
     4     3     4    1
     5     3     5    1
     6     3     7    1
     7     3    23    1
     8     4     6    1
     9     4    24    1
    10     4    25    1
    11     5     9    1
    12     5    26    1
    13     5    27    1
    14     6     8    1
    15     6    28    1
    16     6    29    1
    17     7    15    1
    18     7    19    2
    19     8    12    2
    20     8    17    1
    21     9    10    2
    22     9    30    1
    23    10    11    1
    24    10    21    1
    25    11    14    1
    26    11    31    1
    27    11    32    1
    28    12    13    1
    29    12    33    1
    30    13    16    1
    31    13    34    1
    32    13    35    1
    33    14    20    1
    34    14    36    1
    35    14    37    1
    36    15    38    1
    37    15    39    1
    38    15    40    1
    39    16    18    1
    40    16    41    1
    41    16    42    1
    42    17    43    1
    43    17    44    1
    44    17    45    1
    45    18    20    2
    46    18    22    1
    47    19    46    1
    48    19    47    1
    49    20    48    1
    50    21    49    1
    51    21    50    1
    52    21    51    1
