@<TRIPOS>MOLECULE
IMPHY016500
 13 12 0 0 0
SMALL
GASTEIGER

@<TRIPOS>ATOM
      1 O           3.7320    0.7500    0.0000 O.3     1  UNL1       -0.3937
      2 O           2.8660   -0.7500    0.0000 O.2     1  UNL1       -0.2507
      3 O           4.5981   -0.7500    0.0000 O.2     1  UNL1       -0.2507
      4 C           2.8660    0.2500    0.0000 C.2     1  UNL1        0.3113
      5 C           4.5981    0.2500    0.0000 C.2     1  UNL1        0.3113
      6 C           2.0000    0.7500    0.0000 C.3     1  UNL1        0.0337
      7 C           5.4641    0.7500    0.0000 C.3     1  UNL1        0.0337
      8 H           2.3100    1.2869    0.0000 H       1  UNL1        0.0342
      9 H           1.4631    1.0600    0.0000 H       1  UNL1        0.0342
     10 H           1.6900    0.2131    0.0000 H       1  UNL1        0.0342
     11 H           5.7741    0.2131    0.0000 H       1  UNL1        0.0342
     12 H           6.0010    1.0600    0.0000 H       1  UNL1        0.0342
     13 H           5.1541    1.2869    0.0000 H       1  UNL1        0.0342
@<TRIPOS>BOND
     1     1     4    1
     2     1     5    1
     3     2     4    2
     4     3     5    2
     5     4     6    1
     6     5     7    1
     7     6     8    1
     8     6     9    1
     9     6    10    1
    10     7    11    1
    11     7    12    1
    12     7    13    1
