@<TRIPOS>MOLECULE
IMPHY009818
 24 24 0 0 0
SMALL
GASTEIGER

@<TRIPOS>ATOM
      1 O           4.5981    2.0000    0.0000 O.3     1  UNL1       -0.4679
      2 O           2.8660    2.0000    0.0000 O.2     1  UNL1       -0.2509
      3 C           2.8660    0.0000    0.0000 C.3     1  UNL1       -0.0176
      4 C           2.8660   -1.0000    0.0000 C.ar    1  UNL1       -0.0468
      5 C           3.7320    0.5000    0.0000 C.3     1  UNL1        0.0489
      6 C           2.0000   -1.5000    0.0000 C.ar    1  UNL1       -0.0586
      7 C           3.7320   -1.5000    0.0000 C.ar    1  UNL1       -0.0586
      8 C           3.7320    1.5000    0.0000 C.2     1  UNL1        0.3071
      9 C           2.0000   -2.5000    0.0000 C.ar    1  UNL1       -0.0615
     10 C           3.7320   -2.5000    0.0000 C.ar    1  UNL1       -0.0615
     11 C           2.8660   -3.0000    0.0000 C.ar    1  UNL1       -0.0617
     12 C           4.5981    3.0000    0.0000 C.3     1  UNL1        0.0817
     13 H           2.6540    0.5826    0.0000 H       1  UNL1        0.0318
     14 H           2.2554   -0.1077    0.0000 H       1  UNL1        0.0318
     15 H           3.9441   -0.0826    0.0000 H       1  UNL1        0.0381
     16 H           4.3426    0.6077    0.0000 H       1  UNL1        0.0381
     17 H           1.4631   -1.1900    0.0000 H       1  UNL1        0.0620
     18 H           4.2690   -1.1900    0.0000 H       1  UNL1        0.0620
     19 H           1.4631   -2.8100    0.0000 H       1  UNL1        0.0618
     20 H           4.2690   -2.8100    0.0000 H       1  UNL1        0.0618
     21 H           2.8660   -3.6200    0.0000 H       1  UNL1        0.0618
     22 H           5.2181    3.0000    0.0000 H       1  UNL1        0.0661
     23 H           4.5981    3.6200    0.0000 H       1  UNL1        0.0661
     24 H           3.9781    3.0000    0.0000 H       1  UNL1        0.0661
@<TRIPOS>BOND
     1     1     8    1
     2     1    12    1
     3     2     8    2
     4     3     4    1
     5     3     5    1
     6     3    13    1
     7     3    14    1
     8     4     6   ar
     9     4     7   ar
    10     5     8    1
    11     5    15    1
    12     5    16    1
    13     6     9   ar
    14     6    17    1
    15     7    10   ar
    16     7    18    1
    17     9    11   ar
    18     9    19    1
    19    10    11   ar
    20    10    20    1
    21    11    21    1
    22    12    22    1
    23    12    23    1
    24    12    24    1
