@<TRIPOS>MOLECULE
IMPHY001191
 22 23 0 0 0
SMALL
GASTEIGER

@<TRIPOS>ATOM
      1 O           5.4804   -1.8592    0.0000 O.3     1  UNL1       -0.5060
      2 O           3.7320    2.1754    0.0000 O.2     1  UNL1       -0.2870
      3 O           3.7320   -1.8246    0.0000 O.2     1  UNL1       -0.2871
      4 C           4.5981    0.6754    0.0000 C.ar    1  UNL1        0.0362
      5 C           4.5981   -0.3246    0.0000 C.ar    1  UNL1        0.0738
      6 C           2.8660    0.6754    0.0000 C.2     1  UNL1        0.0004
      7 C           3.7320    1.1754    0.0000 C.2     1  UNL1        0.1898
      8 C           3.7320   -0.8246    0.0000 C.2     1  UNL1        0.1906
      9 C           5.4920   -0.8593    0.0000 C.ar    1  UNL1        0.1283
     10 C           2.8660   -0.3246    0.0000 C.2     1  UNL1       -0.0077
     11 C           5.4920    1.2100    0.0000 C.ar    1  UNL1       -0.0500
     12 C           6.3981   -0.3454    0.0000 C.ar    1  UNL1       -0.0194
     13 C           6.3981    0.6962    0.0000 C.ar    1  UNL1       -0.0576
     14 C           2.0000    1.1754    0.0000 C.3     1  UNL1       -0.0359
     15 H           2.3291   -0.6346    0.0000 H       1  UNL1        0.0660
     16 H           5.4848    1.8300    0.0000 H       1  UNL1        0.0625
     17 H           6.9338   -0.6575    0.0000 H       1  UNL1        0.0654
     18 H           6.9338    1.0083    0.0000 H       1  UNL1        0.0619
     19 H           2.3100    1.7123    0.0000 H       1  UNL1        0.0279
     20 H           1.4631    1.4854    0.0000 H       1  UNL1        0.0279
     21 H           1.6900    0.6385    0.0000 H       1  UNL1        0.0279
     22 H           6.0138   -2.1754    0.0000 H       1  UNL1        0.2922
@<TRIPOS>BOND
     1     1     9    1
     2     1    22    1
     3     2     7    2
     4     3     8    2
     5     4     5   ar
     6     4     7    1
     7     4    11   ar
     8     5     8    1
     9     5     9   ar
    10     6     7    1
    11     6    10    2
    12     6    14    1
    13     8    10    1
    14     9    12   ar
    15    10    15    1
    16    11    13   ar
    17    11    16    1
    18    12    13   ar
    19    12    17    1
    20    13    18    1
    21    14    19    1
    22    14    20    1
    23    14    21    1
