@<TRIPOS>MOLECULE
IMPHY001543
 10 10 0 0 0
SMALL
GASTEIGER

@<TRIPOS>ATOM
      1 S           3.3660   -0.6830    0.0000 S.3     1  UNL1       -0.1558
      2 C           2.8660    0.1830    0.0000 C.3     1  UNL1        0.0115
      3 C           3.8660    0.1830    0.0000 C.3     1  UNL1        0.0056
      4 C           2.0000    0.6830    0.0000 C.3     1  UNL1       -0.0526
      5 H           2.4276   -0.2554    0.0000 H       1  UNL1        0.0417
      6 H           4.4486   -0.0290    0.0000 H       1  UNL1        0.0387
      7 H           3.9737    0.7936    0.0000 H       1  UNL1        0.0387
      8 H           2.3100    1.2200    0.0000 H       1  UNL1        0.0241
      9 H           1.4631    0.9930    0.0000 H       1  UNL1        0.0241
     10 H           1.6900    0.1461    0.0000 H       1  UNL1        0.0241
@<TRIPOS>BOND
     1     1     2    1
     2     1     3    1
     3     2     3    1
     4     2     4    1
     5     2     5    1
     6     3     6    1
     7     3     7    1
     8     4     8    1
     9     4     9    1
    10     4    10    1
