@<TRIPOS>MOLECULE
IMPHY014093
 73 76 0 0 0
SMALL
GASTEIGER

@<TRIPOS>ATOM
      1 O           5.0962    2.8842    0.0000 O.3     1  UNL1       -0.4864
      2 O           5.4451   -0.9923    0.0000 O.2     1  UNL1       -0.2739
      3 O           5.5996    2.0201    0.0000 O.2     1  UNL1       -0.2736
      4 O           8.6138    2.0077    0.0000 O.2     1  UNL1       -0.2734
      5 N           4.4271    0.4090    0.0000 N.am    1  UNL1       -0.2851
      6 N           6.5962    0.2861    0.0000 N.am    1  UNL1       -0.3020
      7 N           2.8090   -0.7666    0.0000 N.3     1  UNL1       -0.3085
      8 N           9.0962    1.1521    0.0000 N.am    1  UNL1       -0.2904
      9 C           5.0962    1.1521    0.0000 C.3     1  UNL1        0.1390
     10 C           4.5962    2.0181    0.0000 C.3     1  UNL1        0.1285
     11 C           3.6180    1.8102    0.0000 C.3     1  UNL1        0.0024
     12 C           3.5135    0.8157    0.0000 C.3     1  UNL1        0.0191
     13 C           4.5316   -0.5856    0.0000 C.2     1  UNL1        0.2336
     14 C           3.7226   -1.1733    0.0000 C.3     1  UNL1        0.0873
     15 C           6.0962    1.1521    0.0000 C.2     1  UNL1        0.2378
     16 C           3.8271   -2.1679    0.0000 C.3     1  UNL1       -0.0202
     17 C           3.0181   -2.7557    0.0000 C.3     1  UNL1       -0.0514
     18 C           4.7406   -2.5746    0.0000 C.3     1  UNL1       -0.0606
     19 C           7.5962    0.2861    0.0000 C.3     1  UNL1        0.1037
     20 C           6.0962    2.8842    0.0000 C.ar    1  UNL1        0.1211
     21 C           3.1226   -3.7502    0.0000 C.3     1  UNL1       -0.0650
     22 C           8.0962   -0.5799    0.0000 C.3     1  UNL1       -0.0006
     23 C           2.0000   -1.3544    0.0000 C.3     1  UNL1       -0.0151
     24 C           8.0962    1.1521    0.0000 C.2     1  UNL1        0.2374
     25 C           6.5962    2.0181    0.0000 C.ar    1  UNL1       -0.0194
     26 C           6.5962    3.7502    0.0000 C.ar    1  UNL1       -0.0194
     27 C           7.5962   -1.4460    0.0000 C.ar    1  UNL1       -0.0451
     28 C           7.5962    2.0181    0.0000 C.ar    1  UNL1       -0.0511
     29 C           7.5962    3.7502    0.0000 C.ar    1  UNL1       -0.0511
     30 C           8.0962    2.8842    0.0000 C.ar    1  UNL1       -0.0236
     31 C           6.5962   -1.4460    0.0000 C.ar    1  UNL1       -0.0585
     32 C           8.0962   -2.3120    0.0000 C.ar    1  UNL1       -0.0585
     33 C           9.0962    2.8842    0.0000 C.2     1  UNL1       -0.0407
     34 C           9.5962    2.0181    0.0000 C.2     1  UNL1       -0.0031
     35 C           6.0962   -2.3120    0.0000 C.ar    1  UNL1       -0.0615
     36 C           7.5962   -3.1780    0.0000 C.ar    1  UNL1       -0.0615
     37 C           6.5962   -3.1780    0.0000 C.ar    1  UNL1       -0.0617
     38 H           5.3484    0.5857    0.0000 H       1  UNL1        0.0634
     39 H           4.2318    2.5197    0.0000 H       1  UNL1        0.0757
     40 H           3.5532    2.4268    0.0000 H       1  UNL1        0.0317
     41 H           2.9980    1.8102    0.0000 H       1  UNL1        0.0317
     42 H           2.9071    0.9446    0.0000 H       1  UNL1        0.0466
     43 H           3.3219    0.2260    0.0000 H       1  UNL1        0.0466
     44 H           3.6578   -0.5567    0.0000 H       1  UNL1        0.0559
     45 H           3.8919   -2.7845    0.0000 H       1  UNL1        0.0318
     46 H           2.7463   -2.1984    0.0000 H       1  UNL1        0.0266
     47 H           2.4221   -2.9266    0.0000 H       1  UNL1        0.0266
     48 H           6.2862   -0.2509    0.0000 H       1  UNL1        0.1495
     49 H           2.7442   -0.1500    0.0000 H       1  UNL1        0.1223
     50 H           4.4885   -3.1410    0.0000 H       1  UNL1        0.0233
     51 H           5.3070   -2.8268    0.0000 H       1  UNL1        0.0233
     52 H           4.9928   -2.0082    0.0000 H       1  UNL1        0.0233
     53 H           7.2862   -0.2509    0.0000 H       1  UNL1        0.0598
     54 H           2.5060   -3.8150    0.0000 H       1  UNL1        0.0230
     55 H           3.1874   -4.3668    0.0000 H       1  UNL1        0.0230
     56 H           3.7392   -3.6854    0.0000 H       1  UNL1        0.0230
     57 H           8.5711   -0.9785    0.0000 H       1  UNL1        0.0336
     58 H           8.5711   -0.1814    0.0000 H       1  UNL1        0.0336
     59 H           1.6356   -0.8528    0.0000 H       1  UNL1        0.0388
     60 H           1.4984   -1.7188    0.0000 H       1  UNL1        0.0388
     61 H           2.3644   -1.8560    0.0000 H       1  UNL1        0.0388
     62 H           6.2862    1.4812    0.0000 H       1  UNL1        0.0654
     63 H           6.2862    4.2871    0.0000 H       1  UNL1        0.0654
     64 H           7.9062    1.4812    0.0000 H       1  UNL1        0.0625
     65 H           7.9062    4.2871    0.0000 H       1  UNL1        0.0625
     66 H           9.4062    0.6152    0.0000 H       1  UNL1        0.1543
     67 H           6.2862   -0.9090    0.0000 H       1  UNL1        0.0620
     68 H           8.7162   -2.3120    0.0000 H       1  UNL1        0.0620
     69 H           9.4062    3.4211    0.0000 H       1  UNL1        0.0636
     70 H          10.2162    2.0181    0.0000 H       1  UNL1        0.0782
     71 H           5.4762   -2.3120    0.0000 H       1  UNL1        0.0618
     72 H           7.9062   -3.7150    0.0000 H       1  UNL1        0.0618
     73 H           6.2862   -3.7150    0.0000 H       1  UNL1        0.0618
@<TRIPOS>BOND
     1     1    10    1
     2     1    20    1
     3     2    13    2
     4     3    15    2
     5     4    24    2
     6     5     9    1
     7     5    12    1
     8     5    13   am
     9     6    15   am
    10     6    19    1
    11     6    48    1
    12     7    14    1
    13     7    23    1
    14     7    49    1
    15     8    24   am
    16     8    34    1
    17     8    66    1
    18     9    10    1
    19     9    15    1
    20     9    38    1
    21    10    11    1
    22    10    39    1
    23    11    12    1
    24    11    40    1
    25    11    41    1
    26    12    42    1
    27    12    43    1
    28    13    14    1
    29    14    16    1
    30    14    44    1
    31    16    17    1
    32    16    18    1
    33    16    45    1
    34    17    21    1
    35    17    46    1
    36    17    47    1
    37    18    50    1
    38    18    51    1
    39    18    52    1
    40    19    22    1
    41    19    24    1
    42    19    53    1
    43    20    25   ar
    44    20    26   ar
    45    21    54    1
    46    21    55    1
    47    21    56    1
    48    22    27    1
    49    22    57    1
    50    22    58    1
    51    23    59    1
    52    23    60    1
    53    23    61    1
    54    25    28   ar
    55    25    62    1
    56    26    29   ar
    57    26    63    1
    58    27    31   ar
    59    27    32   ar
    60    28    30   ar
    61    28    64    1
    62    29    30   ar
    63    29    65    1
    64    30    33    1
    65    31    35   ar
    66    31    67    1
    67    32    36   ar
    68    32    68    1
    69    33    34    2
    70    33    69    1
    71    34    70    1
    72    35    37   ar
    73    35    71    1
    74    36    37   ar
    75    36    72    1
    76    37    73    1
