@<TRIPOS>MOLECULE
IMPHY014296
 56 59 0 0 0
SMALL
GASTEIGER

@<TRIPOS>ATOM
      1 O           8.4497   -0.6296    0.0000 O.3     1  UNL1       -0.3313
      2 O           4.8811    0.3649    0.0000 O.3     1  UNL1       -0.3457
      3 O           5.8517   -1.1296    0.0000 O.3     1  UNL1       -0.3460
      4 O           2.6598   -0.9624    0.0000 O.3     1  UNL1       -0.3812
      5 O           3.8642   -2.0145    0.0000 O.3     1  UNL1       -0.3837
      6 O           6.7177   -2.6296    0.0000 O.3     1  UNL1       -0.3865
      7 O           8.4497   -3.6296    0.0000 O.3     1  UNL1       -0.3864
      8 O          10.1818   -0.6296    0.0000 O.3     1  UNL1       -0.4607
      9 O          10.1818   -2.6296    0.0000 O.3     1  UNL1       -0.3829
     10 O           2.5369    1.2068    0.0000 O.3     1  UNL1       -0.3920
     11 O          11.9578    2.3772    0.0000 O.2     1  UNL1       -0.4220
     12 O          12.8338    3.9155    0.0000 O.2     1  UNL1       -0.2452
     13 C           3.4030   -0.2932    0.0000 C.3     1  UNL1        0.1425
     14 C           7.5837   -1.1296    0.0000 C.3     1  UNL1        0.1144
     15 C           4.0721   -1.0364    0.0000 C.3     1  UNL1        0.1387
     16 C           7.5837   -2.1296    0.0000 C.3     1  UNL1        0.1120
     17 C           4.9856   -0.6296    0.0000 C.3     1  UNL1        0.1880
     18 C           8.4497   -2.6296    0.0000 C.3     1  UNL1        0.1152
     19 C           9.3158   -2.1296    0.0000 C.3     1  UNL1        0.1454
     20 C           3.9030    0.5728    0.0000 C.3     1  UNL1        0.0843
     21 C           6.7177   -0.6296    0.0000 C.3     1  UNL1        0.0796
     22 C           9.3158   -1.1296    0.0000 C.3     1  UNL1        0.2308
     23 C           2.5369    0.2068    0.0000 C.3     1  UNL1        0.0778
     24 C          10.1818    0.3704    0.0000 C.ar    1  UNL1        0.1275
     25 C          11.0478    0.8704    0.0000 C.ar    1  UNL1        0.0232
     26 C           9.3158    0.8704    0.0000 C.ar    1  UNL1       -0.0190
     27 C          11.0478    1.8704    0.0000 C.ar    1  UNL1        0.1425
     28 C           9.3158    1.8704    0.0000 C.ar    1  UNL1       -0.0476
     29 C          10.1818    2.3704    0.0000 C.ar    1  UNL1        0.0178
     30 C          10.1657    3.4119    0.0000 C.ar    1  UNL1       -0.0443
     31 C          11.0638    3.9396    0.0000 C.ar    1  UNL1        0.0236
     32 C          11.9658    3.4188    0.0000 C.ar    1  UNL1        0.3372
     33 H           7.5837   -0.5096    0.0000 H       1  UNL1        0.0647
     34 H           3.4732   -1.1968    0.0000 H       1  UNL1        0.0675
     35 H           7.0468   -1.8196    0.0000 H       1  UNL1        0.0647
     36 H           4.9532   -1.2488    0.0000 H       1  UNL1        0.0937
     37 H           7.9128   -2.9396    0.0000 H       1  UNL1        0.0648
     38 H           9.3158   -2.7496    0.0000 H       1  UNL1        0.0683
     39 H           4.0946    1.1625    0.0000 H       1  UNL1        0.0591
     40 H           3.3366    0.8250    0.0000 H       1  UNL1        0.0591
     41 H           7.1162   -0.1547    0.0000 H       1  UNL1        0.0587
     42 H           6.3192   -0.1547    0.0000 H       1  UNL1        0.0587
     43 H           9.8527   -1.4396    0.0000 H       1  UNL1        0.1084
     44 H           1.9264    0.3144    0.0000 H       1  UNL1        0.0587
     45 H           2.3249   -0.3758    0.0000 H       1  UNL1        0.0587
     46 H           2.0702   -0.7708    0.0000 H       1  UNL1        0.2105
     47 H           3.2745   -2.2061    0.0000 H       1  UNL1        0.2101
     48 H           6.7177   -3.2496    0.0000 H       1  UNL1        0.2100
     49 H           7.9128   -3.9396    0.0000 H       1  UNL1        0.2100
     50 H          10.1818   -3.2496    0.0000 H       1  UNL1        0.2102
     51 H           2.0000    1.5168    0.0000 H       1  UNL1        0.2095
     52 H          11.5848    0.5604    0.0000 H       1  UNL1        0.0691
     53 H           8.7788    0.5604    0.0000 H       1  UNL1        0.0654
     54 H           8.7788    2.1804    0.0000 H       1  UNL1        0.0626
     55 H           9.6252    3.7156    0.0000 H       1  UNL1        0.0627
     56 H          11.0614    4.5596    0.0000 H       1  UNL1        0.0689
@<TRIPOS>BOND
     1     1    14    1
     2     1    22    1
     3     2    17    1
     4     2    20    1
     5    17     3    1
     6     3    21    1
     7    13     4    1
     8     4    46    1
     9    15     5    1
    10     5    47    1
    11    16     6    1
    12     6    48    1
    13    18     7    1
    14     7    49    1
    15    22     8    1
    16     8    24    1
    17    19     9    1
    18     9    50    1
    19    10    23    1
    20    10    51    1
    21    11    27   ar
    22    11    32   ar
    23    12    32    2
    24    13    15    1
    25    13    20    1
    26    13    23    1
    27    14    16    1
    28    14    21    1
    29    14    33    1
    30    15    17    1
    31    15    34    1
    32    16    18    1
    33    16    35    1
    34    17    36    1
    35    18    19    1
    36    18    37    1
    37    19    22    1
    38    19    38    1
    39    20    39    1
    40    20    40    1
    41    21    41    1
    42    21    42    1
    43    22    43    1
    44    23    44    1
    45    23    45    1
    46    24    25   ar
    47    24    26   ar
    48    25    27   ar
    49    25    52    1
    50    26    28   ar
    51    26    53    1
    52    27    29   ar
    53    28    29   ar
    54    28    54    1
    55    29    30   ar
    56    30    31   ar
    57    30    55    1
    58    31    32   ar
    59    31    56    1
