@<TRIPOS>MOLECULE
IMPHY006574
 21 21 0 0 0
SMALL
GASTEIGER

@<TRIPOS>ATOM
      1 O           3.7320    1.0000    0.0000 O.3     1  UNL1       -0.4614
      2 O           2.0000    1.0000    0.0000 O.2     1  UNL1       -0.2450
      3 C           2.8660   -0.5000    0.0000 C.ar    1  UNL1        0.0590
      4 C           3.7320    2.0000    0.0000 C.3     1  UNL1        0.0900
      5 C           2.0000   -1.0000    0.0000 C.ar    1  UNL1       -0.0478
      6 C           3.7320   -1.0000    0.0000 C.ar    1  UNL1       -0.0478
      7 C           2.8660    0.5000    0.0000 C.2     1  UNL1        0.3392
      8 C           2.0000   -2.0000    0.0000 C.ar    1  UNL1       -0.0610
      9 C           3.7320   -2.0000    0.0000 C.ar    1  UNL1       -0.0610
     10 C           2.8660   -2.5000    0.0000 C.ar    1  UNL1       -0.0617
     11 C           4.5981    2.5000    0.0000 C.3     1  UNL1       -0.0306
     12 H           3.5200    2.5826    0.0000 H       1  UNL1        0.0695
     13 H           3.1215    1.8923    0.0000 H       1  UNL1        0.0695
     14 H           1.4631   -0.6900    0.0000 H       1  UNL1        0.0626
     15 H           4.2690   -0.6900    0.0000 H       1  UNL1        0.0626
     16 H           1.4631   -2.3100    0.0000 H       1  UNL1        0.0618
     17 H           4.2690   -2.3100    0.0000 H       1  UNL1        0.0618
     18 H           4.9081    1.9631    0.0000 H       1  UNL1        0.0262
     19 H           5.1350    2.8100    0.0000 H       1  UNL1        0.0262
     20 H           4.2881    3.0369    0.0000 H       1  UNL1        0.0262
     21 H           2.8660   -3.1200    0.0000 H       1  UNL1        0.0618
@<TRIPOS>BOND
     1     1     4    1
     2     1     7    1
     3     2     7    2
     4     3     5   ar
     5     3     6   ar
     6     3     7    1
     7     4    11    1
     8     4    12    1
     9     4    13    1
    10     5     8   ar
    11     5    14    1
    12     6     9   ar
    13     6    15    1
    14     8    10   ar
    15     8    16    1
    16     9    10   ar
    17     9    17    1
    18    10    21    1
    19    11    18    1
    20    11    19    1
    21    11    20    1
