@<TRIPOS>MOLECULE
IMPHY000414
 61 65 0 0 0
SMALL
GASTEIGER

@<TRIPOS>ATOM
      1 O          10.2843   -1.5424    0.0000 O.3     1  UNL1       -0.3911
      2 O           8.2894   -0.1180    0.0000 O.3     1  UNL1       -0.3869
      3 O           2.5405    0.9119    0.0000 O.3     1  UNL1       -0.3937
      4 N           5.1326    0.3819    0.0000 N.3     1  UNL1       -0.2991
      5 C           7.6204   -0.0178    0.0000 C.3     1  UNL1       -0.0095
      6 C           8.5304    0.4891    0.0000 C.3     1  UNL1       -0.0227
      7 C           9.3965   -0.0109    0.0000 C.3     1  UNL1        0.0298
      8 C           7.6124   -1.0594    0.0000 C.3     1  UNL1       -0.0250
      9 C           6.6770   -1.6091    0.0000 C.3     1  UNL1       -0.0159
     10 C           9.4125   -1.0524    0.0000 C.3     1  UNL1        0.0641
     11 C           8.5145   -1.5802    0.0000 C.3     1  UNL1       -0.0223
     12 C           8.5304    1.4891    0.0000 C.3     1  UNL1       -0.0424
     13 C           6.6936    0.5463    0.0000 C.3     1  UNL1       -0.0456
     14 C           6.5125    1.0284    0.0000 C.3     1  UNL1        0.0052
     15 C          10.2625    0.4891    0.0000 C.3     1  UNL1       -0.0415
     16 C           9.3965    1.9891    0.0000 C.3     1  UNL1       -0.0174
     17 C           8.9965    0.5891    0.0000 C.3     1  UNL1        0.0845
     18 C           5.7373   -1.0666    0.0000 C.3     1  UNL1       -0.0462
     19 C           5.2275   -1.1390    0.0000 C.3     1  UNL1        0.0047
     20 C          10.2625    1.4891    0.0000 C.3     1  UNL1       -0.0457
     21 C           5.7457    0.0184    0.0000 C.3     1  UNL1       -0.0520
     22 C           8.9965    1.3891    0.0000 C.2     1  UNL1       -0.0448
     23 C           6.6808   -2.6091    0.0000 C.3     1  UNL1       -0.0581
     24 C           4.2724    0.8918    0.0000 C.3     1  UNL1        0.0221
     25 C           8.2894    2.0962    0.0000 C.2     1  UNL1       -0.0967
     26 C           3.4007    0.4019    0.0000 C.3     1  UNL1        0.0569
     27 H           7.7943    0.9141    0.0000 H       1  UNL1        0.0314
     28 H           7.6058   -1.9093    0.0000 H       1  UNL1        0.0313
     29 H           9.9452   -0.7352    0.0000 H       1  UNL1        0.0600
     30 H           8.1172   -2.0562    0.0000 H       1  UNL1        0.0293
     31 H           8.9154   -2.0531    0.0000 H       1  UNL1        0.0293
     32 H           8.3184    2.0717    0.0000 H       1  UNL1        0.0274
     33 H           7.9198    1.3814    0.0000 H       1  UNL1        0.0274
     34 H           7.1018    1.0130    0.0000 H       1  UNL1        0.0271
     35 H           6.3037    1.0284    0.0000 H       1  UNL1        0.0271
     36 H           6.9911    1.4225    0.0000 H       1  UNL1        0.0432
     37 H           6.1813    1.5526    0.0000 H       1  UNL1        0.0432
     38 H          10.4745   -0.0935    0.0000 H       1  UNL1        0.0273
     39 H          10.8731    0.5967    0.0000 H       1  UNL1        0.0273
     40 H           9.3965    2.8391    0.0000 H       1  UNL1        0.0346
     41 H           9.5898    0.7687    0.0000 H       1  UNL1        0.0647
     42 H           5.1273   -0.9558    0.0000 H       1  UNL1        0.0271
     43 H           5.5238   -1.6486    0.0000 H       1  UNL1        0.0271
     44 H           4.6087   -1.1000    0.0000 H       1  UNL1        0.0432
     45 H           5.1114   -1.7480    0.0000 H       1  UNL1        0.0432
     46 H          10.8731    1.3814    0.0000 H       1  UNL1        0.0271
     47 H          10.4745    2.0717    0.0000 H       1  UNL1        0.0271
     48 H           5.5412    0.6037    0.0000 H       1  UNL1        0.0266
     49 H           5.1340   -0.0830    0.0000 H       1  UNL1        0.0266
     50 H           6.0608   -2.6115    0.0000 H       1  UNL1        0.0236
     51 H           6.6832   -3.2291    0.0000 H       1  UNL1        0.0236
     52 H           7.3008   -2.6067    0.0000 H       1  UNL1        0.0236
     53 H          10.2914   -2.1623    0.0000 H       1  UNL1        0.2098
     54 H           4.6764    1.3622    0.0000 H       1  UNL1        0.0449
     55 H           3.8794    1.3714    0.0000 H       1  UNL1        0.0449
     56 H           8.4498   -0.7169    0.0000 H       1  UNL1        0.2102
     57 H           8.4498    2.6951    0.0000 H       1  UNL1        0.0535
     58 H           7.6905    1.9357    0.0000 H       1  UNL1        0.0535
     59 H           2.9967   -0.0684    0.0000 H       1  UNL1        0.0570
     60 H           3.7937   -0.0776    0.0000 H       1  UNL1        0.0570
     61 H           2.0000    0.6081    0.0000 H       1  UNL1        0.2095
@<TRIPOS>BOND
     1    10     1    1
     2     1    53    1
     3    17     2    1
     4     2    56    1
     5     3    26    1
     6     3    61    1
     7     4    14    1
     8     4    19    1
     9     4    24    1
    10     5     6    1
    11     5     8    1
    12     5    13    1
    13     5    14    1
    14     6     7    1
    15     6    12    1
    16     6    27    1
    17     7    10    1
    18     7    15    1
    19     7    17    1
    20     8     9    1
    21     8    11    1
    22     8    28    1
    23     9    18    1
    24     9    19    1
    25     9    23    1
    26    10    11    1
    27    10    29    1
    28    11    30    1
    29    11    31    1
    30    12    16    1
    31    12    32    1
    32    12    33    1
    33    13    21    1
    34    13    34    1
    35    13    35    1
    36    14    36    1
    37    14    37    1
    38    15    20    1
    39    15    38    1
    40    15    39    1
    41    16    20    1
    42    16    22    1
    43    16    40    1
    44    17    22    1
    45    17    41    1
    46    18    21    1
    47    18    42    1
    48    18    43    1
    49    19    44    1
    50    19    45    1
    51    20    46    1
    52    20    47    1
    53    21    48    1
    54    21    49    1
    55    22    25    2
    56    23    50    1
    57    23    51    1
    58    23    52    1
    59    24    26    1
    60    24    54    1
    61    24    55    1
    62    25    57    1
    63    25    58    1
    64    26    59    1
    65    26    60    1
