@<TRIPOS>MOLECULE
IMPHY008477
 33 35 0 0 0
SMALL
GASTEIGER

@<TRIPOS>ATOM
      1 O           6.0812   -1.6329    0.0000 O.2     1  UNL1       -0.4592
      2 O           2.5369   -1.8282    0.0000 O.3     1  UNL1       -0.4913
      3 O           2.5369    0.1719    0.0000 O.3     1  UNL1       -0.5033
      4 C           6.0812   -0.0234    0.0000 C.ar    1  UNL1        0.0306
      5 C           5.1350   -0.3281    0.0000 C.ar    1  UNL1        0.0318
      6 C           5.1350   -1.3282    0.0000 C.ar    1  UNL1        0.1395
      7 C           6.6648   -0.8281    0.0000 C.ar    1  UNL1        0.1109
      8 C           6.3919    0.9271    0.0000 C.ar    1  UNL1       -0.0140
      9 C           4.2690    0.1719    0.0000 C.ar    1  UNL1       -0.0052
     10 C           4.2690   -1.8282    0.0000 C.ar    1  UNL1        0.0266
     11 C           3.4030   -0.3281    0.0000 C.ar    1  UNL1        0.1593
     12 C           3.4030   -1.3282    0.0000 C.ar    1  UNL1        0.1648
     13 C           7.6648   -0.8281    0.0000 C.3     1  UNL1       -0.0057
     14 C           7.3704    1.1333    0.0000 C.ar    1  UNL1       -0.0539
     15 C           5.7240    1.6714    0.0000 C.ar    1  UNL1       -0.0539
     16 C           7.6811    2.0838    0.0000 C.ar    1  UNL1       -0.0612
     17 C           6.0347    2.6219    0.0000 C.ar    1  UNL1       -0.0612
     18 C           7.0132    2.8282    0.0000 C.ar    1  UNL1       -0.0617
     19 C           2.5369   -2.8282    0.0000 C.3     1  UNL1        0.0790
     20 H           4.2690    0.7919    0.0000 H       1  UNL1        0.0662
     21 H           4.2690   -2.4482    0.0000 H       1  UNL1        0.0692
     22 H           7.6648   -1.4482    0.0000 H       1  UNL1        0.0308
     23 H           8.2848   -0.8281    0.0000 H       1  UNL1        0.0308
     24 H           7.6648   -0.2081    0.0000 H       1  UNL1        0.0308
     25 H           7.7845    0.6719    0.0000 H       1  UNL1        0.0624
     26 H           5.1174    1.5436    0.0000 H       1  UNL1        0.0624
     27 H           8.2877    2.2117    0.0000 H       1  UNL1        0.0618
     28 H           5.6207    3.0834    0.0000 H       1  UNL1        0.0618
     29 H           7.2058    3.4175    0.0000 H       1  UNL1        0.0618
     30 H           2.0000   -0.1381    0.0000 H       1  UNL1        0.2923
     31 H           1.9169   -2.8282    0.0000 H       1  UNL1        0.0660
     32 H           2.5369   -3.4482    0.0000 H       1  UNL1        0.0660
     33 H           3.1569   -2.8282    0.0000 H       1  UNL1        0.0660
@<TRIPOS>BOND
     1     1     6   ar
     2     1     7   ar
     3     2    12    1
     4     2    19    1
     5     3    11    1
     6     3    30    1
     7     4     5   ar
     8     4     7   ar
     9     4     8    1
    10     5     6   ar
    11     5     9   ar
    12     6    10   ar
    13     7    13    1
    14     8    14   ar
    15     8    15   ar
    16     9    11   ar
    17     9    20    1
    18    10    12   ar
    19    10    21    1
    20    11    12   ar
    21    13    22    1
    22    13    23    1
    23    13    24    1
    24    14    16   ar
    25    14    25    1
    26    15    17   ar
    27    15    26    1
    28    16    18   ar
    29    16    27    1
    30    17    18   ar
    31    17    28    1
    32    18    29    1
    33    19    31    1
    34    19    32    1
    35    19    33    1
