@<TRIPOS>MOLECULE
IMPHY006394
 21 22 0 0 0
SMALL
GASTEIGER

@<TRIPOS>ATOM
      1 O           3.7320    2.0000    0.0000 O.2     1  UNL1       -0.2654
      2 O           2.0000   -1.0000    0.0000 O.2     1  UNL1       -0.2464
      3 N           5.5443    0.8047    0.0000 N.ar    1  UNL1       -0.3277
      4 N           3.7320   -1.0000    0.0000 N.ar    1  UNL1       -0.2797
      5 N           2.8660    0.5000    0.0000 N.ar    1  UNL1       -0.2731
      6 N           5.5443   -0.8047    0.0000 N.ar    1  UNL1       -0.2177
      7 C           4.5981    0.5000    0.0000 C.ar    1  UNL1        0.1510
      8 C           4.5981   -0.5000    0.0000 C.ar    1  UNL1        0.1678
      9 C           3.7320    1.0000    0.0000 C.ar    1  UNL1        0.2798
     10 C           2.8660   -0.5000    0.0000 C.ar    1  UNL1        0.3307
     11 C           6.1279    0.0000    0.0000 C.ar    1  UNL1        0.0986
     12 C           3.7320   -2.0000    0.0000 C.3     1  UNL1        0.0181
     13 C           5.8550    1.7552    0.0000 C.3     1  UNL1        0.0135
     14 H           6.7479    0.0000    0.0000 H       1  UNL1        0.1029
     15 H           2.3291    0.8100    0.0000 H       1  UNL1        0.1735
     16 H           3.1120   -2.0000    0.0000 H       1  UNL1        0.0458
     17 H           3.7320   -2.6200    0.0000 H       1  UNL1        0.0458
     18 H           4.3520   -2.0000    0.0000 H       1  UNL1        0.0458
     19 H           6.4443    1.5626    0.0000 H       1  UNL1        0.0456
     20 H           6.0476    2.3446    0.0000 H       1  UNL1        0.0456
     21 H           5.2656    1.9479    0.0000 H       1  UNL1        0.0456
@<TRIPOS>BOND
     1     1     9    2
     2     2    10    2
     3     3     7   ar
     4     3    11   ar
     5     3    13    1
     6     4     8   ar
     7     4    10   ar
     8     4    12    1
     9     5     9   ar
    10     5    10   ar
    11     5    15    1
    12     6     8   ar
    13     6    11   ar
    14     7     8   ar
    15     7     9   ar
    16    11    14    1
    17    12    16    1
    18    12    17    1
    19    12    18    1
    20    13    19    1
    21    13    20    1
    22    13    21    1
