@<TRIPOS>MOLECULE
IMPHY005199
 77 84 0 0 0
SMALL
GASTEIGER

@<TRIPOS>ATOM
      1 O           7.6597    1.9144    0.0000 O.3     1  UNL1       -0.3578
      2 O           3.6145    0.6521    0.0000 O.3     1  UNL1       -0.3329
      3 O          10.0735    0.3544    0.0000 O.3     1  UNL1       -0.3725
      4 O           6.4666   -1.8065    0.0000 O.3     1  UNL1       -0.3644
      5 O           8.2245    1.7084    0.0000 O.3     1  UNL1       -0.3886
      6 O           4.8104    2.8443    0.0000 O.3     1  UNL1       -0.3778
      7 O           7.3366   -2.8230    0.0000 O.3     1  UNL1       -0.3911
      8 O           2.4239    2.1292    0.0000 O.2     1  UNL1       -0.4680
      9 O          10.8765   -2.8367    0.0000 O.3     1  UNL1       -0.3905
     10 O          11.5104   -2.1470    0.0000 O.3     1  UNL1       -0.4674
     11 O           5.5232   -2.5023    0.0000 O.3     1  UNL1       -0.4661
     12 O          11.4904   -0.4151    0.0000 O.2     1  UNL1       -0.2500
     13 O           4.6546   -1.0038    0.0000 O.2     1  UNL1       -0.2479
     14 C           7.0164    1.1481    0.0000 C.3     1  UNL1        0.1333
     15 C           7.3584    0.2084    0.0000 C.3     1  UNL1        0.0368
     16 C           6.6744    2.0878    0.0000 C.3     1  UNL1        0.1055
     17 C           7.3584   -0.7916    0.0000 C.3     1  UNL1        0.0168
     18 C           8.2245   -1.2916    0.0000 C.3     1  UNL1        0.0329
     19 C           5.3251    1.4590    0.0000 C.3     1  UNL1        0.0316
     20 C           5.6672    0.5193    0.0000 C.3     1  UNL1        0.0955
     21 C           9.0905   -0.7916    0.0000 C.3     1  UNL1        0.0185
     22 C           8.2245    0.7084    0.0000 C.3     1  UNL1        0.0901
     23 C           5.0190   -0.5237    0.0000 C.3     1  UNL1       -0.0149
     24 C           9.0905    0.2084    0.0000 C.3     1  UNL1        0.0898
     25 C          10.0005   -1.2984    0.0000 C.3     1  UNL1        0.1224
     26 C           4.0333    2.2150    0.0000 C.3     1  UNL1        0.1545
     27 C           6.3866   -1.0008    0.0000 C.3     1  UNL1        0.1591
     28 C           8.2084   -2.3331    0.0000 C.3     1  UNL1        0.0661
     29 C           6.4924    0.7084    0.0000 C.3     1  UNL1       -0.0539
     30 C           6.3324    3.0275    0.0000 C.3     1  UNL1       -0.0326
     31 C           7.5574   -2.0286    0.0000 C.3     1  UNL1        0.0575
     32 C           3.2562    1.5856    0.0000 C.3     1  UNL1        0.2342
     33 C          10.0085   -2.3400    0.0000 C.3     1  UNL1        0.0758
     34 C           9.1064   -2.8608    0.0000 C.3     1  UNL1        0.0010
     35 C          10.5873   -0.4963    0.0000 C.3     1  UNL1        0.0667
     36 C           3.6746    3.1421    0.0000 C.2     1  UNL1       -0.0121
     37 C          11.0004   -1.2868    0.0000 C.2     1  UNL1        0.3182
     38 C           5.5215   -1.5023    0.0000 C.2     1  UNL1        0.3363
     39 C           2.6820    3.0892    0.0000 C.2     1  UNL1        0.0870
     40 C          12.5103   -2.1355    0.0000 C.3     1  UNL1        0.0817
     41 C           6.3901   -3.0008    0.0000 C.3     1  UNL1        0.0817
     42 H           6.6972   -0.2575    0.0000 H       1  UNL1        0.0345
     43 H           5.0344    2.2578    0.0000 H       1  UNL1        0.0363
     44 H           5.9579   -0.2794    0.0000 H       1  UNL1        0.0627
     45 H           9.0905   -1.6416    0.0000 H       1  UNL1        0.0346
     46 H           7.6875    1.0184    0.0000 H       1  UNL1        0.0626
     47 H           5.3820   -1.0264    0.0000 H       1  UNL1        0.0296
     48 H           4.4162   -0.6688    0.0000 H       1  UNL1        0.0296
     49 H           9.2494    1.0434    0.0000 H       1  UNL1        0.0625
     50 H           6.1040   -1.5526    0.0000 H       1  UNL1        0.0716
     51 H           8.2024   -2.9530    0.0000 H       1  UNL1        0.0600
     52 H           6.1824    0.1715    0.0000 H       1  UNL1        0.0237
     53 H           5.9555    1.0184    0.0000 H       1  UNL1        0.0237
     54 H           6.8024    1.2454    0.0000 H       1  UNL1        0.0237
     55 H           5.7498    2.8155    0.0000 H       1  UNL1        0.0258
     56 H           6.1203    3.6101    0.0000 H       1  UNL1        0.0258
     57 H           6.9150    3.2396    0.0000 H       1  UNL1        0.0258
     58 H           8.0835   -2.3565    0.0000 H       1  UNL1        0.0567
     59 H           7.3279   -2.6046    0.0000 H       1  UNL1        0.0567
     60 H           2.5956    1.0507    0.0000 H       1  UNL1        0.1090
     61 H          10.5437   -2.0269    0.0000 H       1  UNL1        0.0606
     62 H           9.5038   -3.3368    0.0000 H       1  UNL1        0.0315
     63 H           8.7055   -3.3337    0.0000 H       1  UNL1        0.0315
     64 H          11.0712   -0.1088    0.0000 H       1  UNL1        0.0572
     65 H          11.0352   -0.9251    0.0000 H       1  UNL1        0.0572
     66 H           8.7614    2.0184    0.0000 H       1  UNL1        0.2099
     67 H           4.0114    3.6626    0.0000 H       1  UNL1        0.0633
     68 H           4.7135    3.4567    0.0000 H       1  UNL1        0.2109
     69 H           7.3295   -3.4430    0.0000 H       1  UNL1        0.2098
     70 H           2.2918    3.5710    0.0000 H       1  UNL1        0.1022
     71 H          10.8789   -3.4567    0.0000 H       1  UNL1        0.2098
     72 H          12.5032   -1.5155    0.0000 H       1  UNL1        0.0661
     73 H          13.1303   -2.1283    0.0000 H       1  UNL1        0.0661
     74 H          12.5175   -2.7554    0.0000 H       1  UNL1        0.0661
     75 H           6.6992   -2.4633    0.0000 H       1  UNL1        0.0661
     76 H           6.9276   -3.3098    0.0000 H       1  UNL1        0.0661
     77 H           6.0810   -3.5382    0.0000 H       1  UNL1        0.0661
@<TRIPOS>BOND
     1    14     1    1
     2     1    16    1
     3     2    20    1
     4     2    32    1
     5     3    24    1
     6     3    35    1
     7     4    27    1
     8     4    31    1
     9    22     5    1
    10     5    66    1
    11    26     6    1
    12     6    68    1
    13    28     7    1
    14     7    69    1
    15     8    32    1
    16     8    39    1
    17    33     9    1
    18     9    71    1
    19    10    37    1
    20    10    40    1
    21    11    38    1
    22    11    41    1
    23    12    37    2
    24    13    38    2
    25    14    15    1
    26    14    16    1
    27    14    20    1
    28    15    17    1
    29    15    22    1
    30    15    29    1
    31    16    19    1
    32    16    30    1
    33    17    18    1
    34    17    27    1
    35    17    42    1
    36    18    21    1
    37    18    28    1
    38    18    31    1
    39    19    23    1
    40    19    26    1
    41    19    43    1
    42    20    23    1
    43    20    44    1
    44    21    24    1
    45    21    25    1
    46    21    45    1
    47    22    24    1
    48    22    46    1
    49    23    47    1
    50    23    48    1
    51    24    49    1
    52    25    33    1
    53    25    35    1
    54    25    37    1
    55    26    32    1
    56    26    36    1
    57    27    38    1
    58    27    50    1
    59    28    34    1
    60    28    51    1
    61    29    52    1
    62    29    53    1
    63    29    54    1
    64    30    55    1
    65    30    56    1
    66    30    57    1
    67    31    58    1
    68    31    59    1
    69    32    60    1
    70    33    34    1
    71    33    61    1
    72    34    62    1
    73    34    63    1
    74    35    64    1
    75    35    65    1
    76    36    39    2
    77    36    67    1
    78    39    70    1
    79    40    72    1
    80    40    73    1
    81    40    74    1
    82    41    75    1
    83    41    76    1
    84    41    77    1
