@<TRIPOS>MOLECULE
IMPHY010185
 98 102 0 0 0
SMALL
GASTEIGER

@<TRIPOS>ATOM
      1 O          10.2629    0.4899    0.0000 O.3     1  UNL1       -0.4577
      2 O           6.0010   -0.0101    0.0000 O.2     1  UNL1       -0.4702
      3 O           6.8671   -1.5101    0.0000 O.3     1  UNL1       -0.3096
      4 O           5.1350   -1.5101    0.0000 O.3     1  UNL1       -0.3404
      5 O           6.0010    2.9899    0.0000 O.3     1  UNL1       -0.4646
      6 O           7.7331    2.9899    0.0000 O.2     1  UNL1       -0.2452
      7 O           6.8671   -3.5101    0.0000 O.3     1  UNL1       -0.3841
      8 O           5.1350   -4.5101    0.0000 O.3     1  UNL1       -0.3864
      9 O          10.2629    2.2220    0.0000 O.2     1  UNL1       -0.2452
     10 O          13.2629    0.4899    0.0000 O.2     1  UNL1       -0.4699
     11 O           3.4030   -3.5101    0.0000 O.3     1  UNL1       -0.3865
     12 O          14.7629    1.3560    0.0000 O.3     1  UNL1       -0.3093
     13 O          16.2629    0.4899    0.0000 O.3     1  UNL1       -0.3404
     14 O           2.5369   -2.0101    0.0000 O.3     1  UNL1       -0.3924
     15 O          13.7629   -0.3761    0.0000 O.3     1  UNL1       -0.3841
     16 O          14.7629   -2.1081    0.0000 O.3     1  UNL1       -0.3864
     17 O          16.7629   -2.1081    0.0000 O.3     1  UNL1       -0.3865
     18 O          11.7629    4.8201    0.0000 O.2     1  UNL1       -0.3010
     19 O          18.2629    0.4899    0.0000 O.3     1  UNL1       -0.3924
     20 C           7.7331   -0.0101    0.0000 C.3     1  UNL1        0.0348
     21 C           7.7331    0.9899    0.0000 C.3     1  UNL1        0.0060
     22 C           8.6793   -0.3148    0.0000 C.3     1  UNL1        0.0024
     23 C           9.2629    0.4899    0.0000 C.3     1  UNL1        0.1070
     24 C           8.6793    1.2947    0.0000 C.3     1  UNL1       -0.0078
     25 C           6.8671   -0.5101    0.0000 C.3     1  UNL1        0.2072
     26 C           6.8671    1.4899    0.0000 C.2     1  UNL1        0.0744
     27 C           8.9900   -1.2653    0.0000 C.3     1  UNL1       -0.0586
     28 C           6.0010    0.9899    0.0000 C.2     1  UNL1        0.0981
     29 C           6.0010   -2.0101    0.0000 C.3     1  UNL1        0.1918
     30 C           6.8671    2.4899    0.0000 C.2     1  UNL1        0.3381
     31 C           6.0010   -3.0101    0.0000 C.3     1  UNL1        0.1342
     32 C          10.7629    1.3560    0.0000 C.2     1  UNL1        0.3387
     33 C           5.1350   -3.5101    0.0000 C.3     1  UNL1        0.1141
     34 C           4.2690   -2.0101    0.0000 C.3     1  UNL1        0.1130
     35 C           4.2690   -3.0101    0.0000 C.3     1  UNL1        0.1119
     36 C          11.7629    1.3560    0.0000 C.2     1  UNL1        0.0750
     37 C          12.2629    2.2220    0.0000 C.3     1  UNL1        0.0121
     38 C          13.2629    2.2220    0.0000 C.3     1  UNL1        0.0470
     39 C          13.7629    1.3560    0.0000 C.3     1  UNL1        0.2102
     40 C           3.4030   -1.5101    0.0000 C.3     1  UNL1        0.0730
     41 C          12.2629    0.4899    0.0000 C.2     1  UNL1        0.0981
     42 C          11.7629    3.0880    0.0000 C.3     1  UNL1        0.0106
     43 C          15.2629    0.4899    0.0000 C.3     1  UNL1        0.1918
     44 C          14.7629   -0.3761    0.0000 C.3     1  UNL1        0.1342
     45 C          13.7629    3.0880    0.0000 C.2     1  UNL1       -0.0816
     46 C          15.2629   -1.2421    0.0000 C.3     1  UNL1        0.1141
     47 C          16.2629   -1.2421    0.0000 C.3     1  UNL1        0.1119
     48 C           6.0010    3.9899    0.0000 C.3     1  UNL1        0.0820
     49 C          16.7629   -0.3761    0.0000 C.3     1  UNL1        0.1130
     50 C          12.2629    3.9540    0.0000 C.2     1  UNL1        0.1209
     51 C          17.7629   -0.3761    0.0000 C.3     1  UNL1        0.0730
     52 C          14.7629    3.0880    0.0000 C.2     1  UNL1       -0.1022
     53 H           7.8230   -0.8553    0.0000 H       1  UNL1        0.0371
     54 H           7.8230    1.8352    0.0000 H       1  UNL1        0.0358
     55 H           8.2418   -0.7541    0.0000 H       1  UNL1        0.0339
     56 H           9.5446   -0.0624    0.0000 H       1  UNL1        0.0737
     57 H           9.2167    1.6039    0.0000 H       1  UNL1        0.0307
     58 H           8.4283    1.8616    0.0000 H       1  UNL1        0.0307
     59 H           7.4040   -0.8201    0.0000 H       1  UNL1        0.1059
     60 H           8.4006   -1.4579    0.0000 H       1  UNL1        0.0234
     61 H           9.1826   -1.8546    0.0000 H       1  UNL1        0.0234
     62 H           9.5793   -1.0727    0.0000 H       1  UNL1        0.0234
     63 H           5.4641    1.2999    0.0000 H       1  UNL1        0.1029
     64 H           6.5380   -2.3201    0.0000 H       1  UNL1        0.0939
     65 H           6.0010   -3.6301    0.0000 H       1  UNL1        0.0671
     66 H           4.5981   -3.8201    0.0000 H       1  UNL1        0.0648
     67 H           4.2690   -1.3901    0.0000 H       1  UNL1        0.0647
     68 H           3.7320   -2.7001    0.0000 H       1  UNL1        0.0647
     69 H          11.6429    2.2220    0.0000 H       1  UNL1        0.0364
     70 H          13.8829    2.2220    0.0000 H       1  UNL1        0.0410
     71 H          14.0729    0.8190    0.0000 H       1  UNL1        0.1062
     72 H           3.8015   -1.0351    0.0000 H       1  UNL1        0.0584
     73 H           3.0044   -1.0351    0.0000 H       1  UNL1        0.0584
     74 H          11.9529   -0.0470    0.0000 H       1  UNL1        0.1029
     75 H          11.2880    3.4865    0.0000 H       1  UNL1        0.0345
     76 H          11.2880    2.6895    0.0000 H       1  UNL1        0.0345
     77 H           6.8671   -4.1301    0.0000 H       1  UNL1        0.2101
     78 H          15.5729    1.0269    0.0000 H       1  UNL1        0.0939
     79 H           4.5981   -4.8201    0.0000 H       1  UNL1        0.2100
     80 H          14.4529   -0.9130    0.0000 H       1  UNL1        0.0671
     81 H           3.4030   -4.1301    0.0000 H       1  UNL1        0.2100
     82 H          15.5729   -1.7790    0.0000 H       1  UNL1        0.0648
     83 H          13.4529    3.6250    0.0000 H       1  UNL1        0.0571
     84 H          16.8829   -1.2421    0.0000 H       1  UNL1        0.0647
     85 H          17.0729    0.1608    0.0000 H       1  UNL1        0.0647
     86 H           6.6210    3.9899    0.0000 H       1  UNL1        0.0661
     87 H           6.0010    4.6099    0.0000 H       1  UNL1        0.0661
     88 H           5.3810    3.9899    0.0000 H       1  UNL1        0.0661
     89 H          12.8829    3.9540    0.0000 H       1  UNL1        0.1026
     90 H           2.0000   -1.7001    0.0000 H       1  UNL1        0.2095
     91 H          17.6553   -0.9867    0.0000 H       1  UNL1        0.0584
     92 H          18.3455   -0.5881    0.0000 H       1  UNL1        0.0584
     93 H          15.0729    2.5511    0.0000 H       1  UNL1        0.0532
     94 H          15.0729    3.6250    0.0000 H       1  UNL1        0.0532
     95 H          13.4529   -0.9130    0.0000 H       1  UNL1        0.2101
     96 H          15.0729   -2.6451    0.0000 H       1  UNL1        0.2100
     97 H          17.3829   -2.1081    0.0000 H       1  UNL1        0.2100
     98 H          18.8829    0.4899    0.0000 H       1  UNL1        0.2095
@<TRIPOS>BOND
     1    23     1    1
     2     1    32    1
     3     2    25    1
     4     2    28    1
     5    25     3    1
     6    29     3    1
     7     4    29    1
     8     4    34    1
     9     5    30    1
    10     5    48    1
    11     6    30    2
    12    31     7    1
    13     7    77    1
    14    33     8    1
    15     8    79    1
    16     9    32    2
    17    10    39    1
    18    10    41    1
    19    35    11    1
    20    11    81    1
    21    39    12    1
    22    43    12    1
    23    13    43    1
    24    13    49    1
    25    14    40    1
    26    14    90    1
    27    44    15    1
    28    15    95    1
    29    46    16    1
    30    16    96    1
    31    47    17    1
    32    17    97    1
    33    18    50    2
    34    19    51    1
    35    19    98    1
    36    20    21    1
    37    20    22    1
    38    20    25    1
    39    20    53    1
    40    21    24    1
    41    21    26    1
    42    21    54    1
    43    22    23    1
    44    22    27    1
    45    22    55    1
    46    23    24    1
    47    23    56    1
    48    24    57    1
    49    24    58    1
    50    25    59    1
    51    26    28    2
    52    26    30    1
    53    27    60    1
    54    27    61    1
    55    27    62    1
    56    28    63    1
    57    29    31    1
    58    29    64    1
    59    31    33    1
    60    31    65    1
    61    32    36    1
    62    33    35    1
    63    33    66    1
    64    34    35    1
    65    34    40    1
    66    34    67    1
    67    35    68    1
    68    36    37    1
    69    36    41    2
    70    37    38    1
    71    37    42    1
    72    37    69    1
    73    38    39    1
    74    38    45    1
    75    38    70    1
    76    39    71    1
    77    40    72    1
    78    40    73    1
    79    41    74    1
    80    42    50    1
    81    42    75    1
    82    42    76    1
    83    43    44    1
    84    43    78    1
    85    44    46    1
    86    44    80    1
    87    45    52    2
    88    45    83    1
    89    46    47    1
    90    46    82    1
    91    47    49    1
    92    47    84    1
    93    48    86    1
    94    48    87    1
    95    48    88    1
    96    49    51    1
    97    49    85    1
    98    50    89    1
    99    51    91    1
   100    51    92    1
   101    52    93    1
   102    52    94    1
