@<TRIPOS>MOLECULE
IMPHY001077
 42 44 0 0 0
SMALL
GASTEIGER

@<TRIPOS>ATOM
      1 O           2.5369   -2.2500    0.0000 O.3     1  UNL1       -0.5068
      2 N           7.7331   -0.2500    0.0000 N.ar    1  UNL1       -0.2030
      3 C          10.4114   -0.5547    0.0000 C.3     1  UNL1       -0.0125
      4 C          10.9950    0.2500    0.0000 C.3     1  UNL1       -0.0422
      5 C           9.4651   -0.2500    0.0000 C.ar    1  UNL1        0.0225
      6 C          10.4114    1.0547    0.0000 C.3     1  UNL1       -0.0262
      7 C           9.4651    0.7500    0.0000 C.ar    1  UNL1       -0.0298
      8 C           8.5991    1.2500    0.0000 C.ar    1  UNL1        0.0166
      9 C           8.5991   -0.7500    0.0000 C.ar    1  UNL1        0.1749
     10 C          10.7220   -1.5052    0.0000 C.3     1  UNL1       -0.0582
     11 C           7.7331    0.7500    0.0000 C.ar    1  UNL1        0.1744
     12 C           6.8671   -0.7500    0.0000 C.3     1  UNL1        0.1544
     13 C           8.5991    2.2500    0.0000 C.3     1  UNL1       -0.0338
     14 C           6.0010   -0.2500    0.0000 C.3     1  UNL1        0.0321
     15 C           5.1350   -0.7500    0.0000 C.ar    1  UNL1       -0.0411
     16 C           4.2690   -0.2500    0.0000 C.ar    1  UNL1       -0.0549
     17 C           5.1350   -1.7500    0.0000 C.ar    1  UNL1       -0.0549
     18 C           3.4030   -0.7500    0.0000 C.ar    1  UNL1       -0.0199
     19 C           4.2690   -2.2500    0.0000 C.ar    1  UNL1       -0.0199
     20 C           3.4030   -1.7500    0.0000 C.ar    1  UNL1        0.1169
     21 H          11.0239   -0.6509    0.0000 H       1  UNL1        0.0348
     22 H          11.4558   -0.1647    0.0000 H       1  UNL1        0.0274
     23 H          11.4558    0.6647    0.0000 H       1  UNL1        0.0274
     24 H          10.9487    1.3640    0.0000 H       1  UNL1        0.0314
     25 H          10.1603    1.6216    0.0000 H       1  UNL1        0.0314
     26 H           8.5991   -1.3700    0.0000 H       1  UNL1        0.1379
     27 H          10.1327   -1.6979    0.0000 H       1  UNL1        0.0236
     28 H          10.9146   -2.0946    0.0000 H       1  UNL1        0.0236
     29 H          11.3113   -1.3126    0.0000 H       1  UNL1        0.0236
     30 H           7.1962    1.0600    0.0000 H       1  UNL1        0.1379
     31 H           6.4685   -1.2250    0.0000 H       1  UNL1        0.1034
     32 H           7.2656   -1.2250    0.0000 H       1  UNL1        0.1034
     33 H           9.2191    2.2500    0.0000 H       1  UNL1        0.0280
     34 H           8.5991    2.8700    0.0000 H       1  UNL1        0.0280
     35 H           7.9791    2.2500    0.0000 H       1  UNL1        0.0280
     36 H           6.3996    0.2249    0.0000 H       1  UNL1        0.0375
     37 H           5.6025    0.2249    0.0000 H       1  UNL1        0.0375
     38 H           4.2690    0.3700    0.0000 H       1  UNL1        0.0621
     39 H           5.6720   -2.0600    0.0000 H       1  UNL1        0.0621
     40 H           2.8660   -0.4400    0.0000 H       1  UNL1        0.0654
     41 H           4.2690   -2.8700    0.0000 H       1  UNL1        0.0654
     42 H           2.0000   -1.9400    0.0000 H       1  UNL1        0.2921
@<TRIPOS>UNITY_ATOM_ATTR
2 1
charge 1
@<TRIPOS>BOND
     1     1    20    1
     2     1    42    1
     3     2     9   ar
     4     2    11   ar
     5     2    12    1
     6     3     4    1
     7     3     5    1
     8     3    10    1
     9     3    21    1
    10     4     6    1
    11     4    22    1
    12     4    23    1
    13     5     7   ar
    14     5     9   ar
    15     6     7    1
    16     6    24    1
    17     6    25    1
    18     7     8   ar
    19     8    11   ar
    20     8    13    1
    21     9    26    1
    22    10    27    1
    23    10    28    1
    24    10    29    1
    25    11    30    1
    26    12    14    1
    27    12    31    1
    28    12    32    1
    29    13    33    1
    30    13    34    1
    31    13    35    1
    32    14    15    1
    33    14    36    1
    34    14    37    1
    35    15    16   ar
    36    15    17   ar
    37    16    18   ar
    38    16    38    1
    39    17    19   ar
    40    17    39    1
    41    18    20   ar
    42    18    40    1
    43    19    20   ar
    44    19    41    1
