@<TRIPOS>MOLECULE
IMPHY000715
 56 62 0 0 0
SMALL
GASTEIGER

@<TRIPOS>ATOM
      1 O           9.1783    3.7798    0.0000 O.3     1  UNL1       -0.4865
      2 O           8.4728   -0.1141    0.0000 O.2     1  UNL1       -0.4623
      3 O          12.6830    2.8673    0.0000 O.2     1  UNL1       -0.2926
      4 O          11.2543    1.0097    0.0000 O.2     1  UNL1       -0.2867
      5 O           5.9530   -0.7763    0.0000 O.2     1  UNL1       -0.4620
      6 O           5.0150    2.0732    0.0000 O.2     1  UNL1       -0.2864
      7 O           9.7729   -3.3963    0.0000 O.3     1  UNL1       -0.5066
      8 O           2.6074   -1.9031    0.0000 O.3     1  UNL1       -0.5066
      9 C           9.6783    2.2410    0.0000 C.3     1  UNL1        0.0862
     10 C           9.9873    3.1921    0.0000 C.3     1  UNL1        0.1245
     11 C           8.6783    2.2410    0.0000 C.ar    1  UNL1        0.0129
     12 C          11.0027    3.4243    0.0000 C.3     1  UNL1        0.0484
     13 C           9.5392    1.2507    0.0000 C.ar    1  UNL1        0.0526
     14 C          10.3633    1.4563    0.0000 C.2     1  UNL1       -0.0622
     15 C           8.3693    3.1921    0.0000 C.ar    1  UNL1        0.1255
     16 C          11.7057    2.6556    0.0000 C.2     1  UNL1        0.1594
     17 C           7.9934    1.4563    0.0000 C.ar    1  UNL1       -0.0459
     18 C          11.3838    1.6650    0.0000 C.2     1  UNL1       -0.0218
     19 C          10.3272    0.6351    0.0000 C.ar    1  UNL1        0.1969
     20 C           7.3539    3.4243    0.0000 C.ar    1  UNL1       -0.0190
     21 C           6.9728    1.6650    0.0000 C.ar    1  UNL1       -0.0107
     22 C           8.6120    0.8761    0.0000 C.ar    1  UNL1        0.1006
     23 C           6.6510    2.6556    0.0000 C.ar    1  UNL1       -0.0503
     24 C          10.1880   -0.3552    0.0000 C.ar    1  UNL1        0.0645
     25 C           6.3066    0.9193    0.0000 C.ar    1  UNL1        0.0643
     26 C           9.2609   -0.7298    0.0000 C.ar    1  UNL1        0.1418
     27 C          11.0186   -0.9838    0.0000 C.ar    1  UNL1       -0.0439
     28 C           5.3276    1.1234    0.0000 C.ar    1  UNL1        0.2001
     29 C           9.1000   -1.7590    0.0000 C.ar    1  UNL1        0.0228
     30 C           6.6193   -0.0306    0.0000 C.ar    1  UNL1        0.1038
     31 C          10.8816   -2.0163    0.0000 C.ar    1  UNL1       -0.0193
     32 C           9.9159   -2.4065    0.0000 C.ar    1  UNL1        0.1204
     33 C           4.6614    0.3777    0.0000 C.ar    1  UNL1        0.0648
     34 C           4.9740   -0.5722    0.0000 C.ar    1  UNL1        0.1419
     35 C           3.6451    0.6060    0.0000 C.ar    1  UNL1       -0.0439
     36 C           4.2921   -1.3596    0.0000 C.ar    1  UNL1        0.0228
     37 C           2.9451   -0.1654    0.0000 C.ar    1  UNL1       -0.0193
     38 C           3.2708   -1.1548    0.0000 C.ar    1  UNL1        0.1204
     39 H          10.1116    3.7995    0.0000 H       1  UNL1        0.0753
     40 H          11.5251    3.7582    0.0000 H       1  UNL1        0.0382
     41 H          10.7631    3.9961    0.0000 H       1  UNL1        0.0382
     42 H          10.1649    0.8689    0.0000 H       1  UNL1        0.0586
     43 H           8.1917    0.8689    0.0000 H       1  UNL1        0.0628
     44 H          11.7969    1.2026    0.0000 H       1  UNL1        0.0649
     45 H           7.1691    4.0161    0.0000 H       1  UNL1        0.0654
     46 H           8.1234    1.2578    0.0000 H       1  UNL1        0.1034
     47 H           6.0450    2.7869    0.0000 H       1  UNL1        0.0625
     48 H          11.5907   -0.7449    0.0000 H       1  UNL1        0.0627
     49 H           8.5225   -1.9846    0.0000 H       1  UNL1        0.0691
     50 H           7.2262   -0.1572    0.0000 H       1  UNL1        0.1037
     51 H          11.3716   -2.3962    0.0000 H       1  UNL1        0.0654
     52 H           3.4580    1.1971    0.0000 H       1  UNL1        0.0627
     53 H           4.4928   -1.9462    0.0000 H       1  UNL1        0.0691
     54 H           2.3387   -0.0365    0.0000 H       1  UNL1        0.0654
     55 H          10.2600   -3.7798    0.0000 H       1  UNL1        0.2921
     56 H           2.0000   -1.7788    0.0000 H       1  UNL1        0.2921
@<TRIPOS>BOND
     1     1    10    1
     2     1    15    1
     3     2    22   ar
     4     2    26   ar
     5     3    16    2
     6     4    19    2
     7     5    30   ar
     8     5    34   ar
     9     6    28    2
    10     7    32    1
    11     7    55    1
    12     8    38    1
    13     8    56    1
    14     9    10    1
    15     9    11    1
    16     9    13    1
    17     9    14    1
    18    10    12    1
    19    10    39    1
    20    11    15   ar
    21    11    17   ar
    22    12    16    1
    23    12    40    1
    24    12    41    1
    25    13    19   ar
    26    13    22   ar
    27    14    18    2
    28    14    42    1
    29    15    20   ar
    30    16    18    1
    31    17    21   ar
    32    17    43    1
    33    18    44    1
    34    19    24   ar
    35    20    23   ar
    36    20    45    1
    37    21    23   ar
    38    21    25    1
    39    22    46    1
    40    23    47    1
    41    24    26   ar
    42    24    27   ar
    43    25    28   ar
    44    25    30   ar
    45    26    29   ar
    46    27    31   ar
    47    27    48    1
    48    28    33   ar
    49    29    32   ar
    50    29    49    1
    51    30    50    1
    52    31    32   ar
    53    31    51    1
    54    33    34   ar
    55    33    35   ar
    56    34    36   ar
    57    35    37   ar
    58    35    52    1
    59    36    38   ar
    60    36    53    1
    61    37    38   ar
    62    37    54    1
