@<TRIPOS>MOLECULE
IMPHY002003
 14 14 0 0 0
SMALL
GASTEIGER

@<TRIPOS>ATOM
      1 O           3.7601   -0.6056    0.0000 O.2     1  UNL1       -0.4574
      2 O           6.2633    0.3423    0.0000 O.2     1  UNL1       -0.2924
      3 C           2.9511   -0.0178    0.0000 C.ar    1  UNL1        0.1028
      4 C           3.2601    0.9333    0.0000 C.ar    1  UNL1       -0.0203
      5 C           4.5691   -0.0178    0.0000 C.ar    1  UNL1        0.1670
      6 C           4.2601    0.9333    0.0000 C.ar    1  UNL1       -0.0130
      7 C           2.0000   -0.3268    0.0000 C.3     1  UNL1       -0.0063
      8 C           5.5202   -0.3268    0.0000 C.2     1  UNL1        0.1851
      9 H           2.8956    1.4348    0.0000 H       1  UNL1        0.0652
     10 H           4.6245    1.4348    0.0000 H       1  UNL1        0.0656
     11 H           1.8084    0.2628    0.0000 H       1  UNL1        0.0308
     12 H           1.4103   -0.5184    0.0000 H       1  UNL1        0.0308
     13 H           2.1916   -0.9165    0.0000 H       1  UNL1        0.0308
     14 H           5.6490   -0.9333    0.0000 H       1  UNL1        0.1114
@<TRIPOS>BOND
     1     1     3   ar
     2     1     5   ar
     3     2     8    2
     4     3     4   ar
     5     3     7    1
     6     4     6   ar
     7     4     9    1
     8     5     6   ar
     9     5     8    1
    10     6    10    1
    11     7    11    1
    12     7    12    1
    13     7    13    1
    14     8    14    1
