@<TRIPOS>MOLECULE
IMPHY004371
 86 89 0 0 0
SMALL
GASTEIGER

@<TRIPOS>ATOM
      1 O           6.0010   -2.8450    0.0000 O.3     1  UNL1       -0.3389
      2 O           6.0010    0.1550    0.0000 O.3     1  UNL1       -0.3394
      3 O           4.2690   -2.8450    0.0000 O.3     1  UNL1       -0.3431
      4 O           7.7331   -1.8450    0.0000 O.3     1  UNL1       -0.4528
      5 O           4.2690    0.1550    0.0000 O.3     1  UNL1       -0.3484
      6 O           4.2690   -1.8450    0.0000 O.3     1  UNL1       -0.3841
      7 O           6.0010   -4.8450    0.0000 O.3     1  UNL1       -0.3841
      8 O           4.2690   -5.8450    0.0000 O.3     1  UNL1       -0.3864
      9 O           2.5369   -4.8450    0.0000 O.3     1  UNL1       -0.3866
     10 O           7.7331    1.1550    0.0000 O.3     1  UNL1       -0.3923
     11 O           8.5991   -0.3450    0.0000 O.2     1  UNL1       -0.2456
     12 O           5.1350    4.6550    0.0000 O.3     1  UNL1       -0.5033
     13 O           3.4030    5.6550    0.0000 O.3     1  UNL1       -0.4915
     14 O          12.0632   -4.3450    0.0000 O.3     1  UNL1       -0.4914
     15 O          13.7953   -3.3450    0.0000 O.3     1  UNL1       -0.5033
     16 C           6.0010   -1.8450    0.0000 C.3     1  UNL1        0.1316
     17 C           6.8671   -1.3450    0.0000 C.3     1  UNL1        0.1602
     18 C           5.1350   -1.3450    0.0000 C.3     1  UNL1        0.1355
     19 C           6.8671   -0.3450    0.0000 C.3     1  UNL1        0.1240
     20 C           5.1350   -3.3450    0.0000 C.3     1  UNL1        0.1884
     21 C           5.1350   -4.3450    0.0000 C.3     1  UNL1        0.1341
     22 C           5.1350   -0.3450    0.0000 C.3     1  UNL1        0.1880
     23 C           4.2690   -4.8450    0.0000 C.3     1  UNL1        0.1140
     24 C           3.4030   -4.3450    0.0000 C.3     1  UNL1        0.1095
     25 C           3.4030   -3.3450    0.0000 C.3     1  UNL1        0.0873
     26 C           7.7331    0.1550    0.0000 C.3     1  UNL1        0.0741
     27 C           2.5369   -2.8450    0.0000 C.3     1  UNL1       -0.0361
     28 C           4.2690    1.1550    0.0000 C.3     1  UNL1        0.0547
     29 C           8.5991   -1.3450    0.0000 C.2     1  UNL1        0.3324
     30 C           3.4030    1.6550    0.0000 C.3     1  UNL1       -0.0039
     31 C           9.4651   -1.8450    0.0000 C.2     1  UNL1        0.0231
     32 C           3.4030    2.6550    0.0000 C.ar    1  UNL1       -0.0415
     33 C          10.3312   -1.3450    0.0000 C.2     1  UNL1       -0.0477
     34 C           4.2690    3.1550    0.0000 C.ar    1  UNL1       -0.0133
     35 C           2.5369    3.1550    0.0000 C.ar    1  UNL1       -0.0548
     36 C           4.2690    4.1550    0.0000 C.ar    1  UNL1        0.1587
     37 C           2.5369    4.1550    0.0000 C.ar    1  UNL1       -0.0161
     38 C          11.1972   -1.8450    0.0000 C.ar    1  UNL1       -0.0211
     39 C           3.4030    4.6550    0.0000 C.ar    1  UNL1        0.1613
     40 C          11.1972   -2.8450    0.0000 C.ar    1  UNL1       -0.0092
     41 C          12.0632   -1.3450    0.0000 C.ar    1  UNL1       -0.0509
     42 C          12.0632   -3.3450    0.0000 C.ar    1  UNL1        0.1618
     43 C          12.9292   -1.8450    0.0000 C.ar    1  UNL1       -0.0160
     44 C          12.9292   -2.8450    0.0000 C.ar    1  UNL1        0.1585
     45 C           2.5369    6.1550    0.0000 C.3     1  UNL1        0.0790
     46 C          12.9292   -4.8450    0.0000 C.3     1  UNL1        0.0790
     47 H           6.5380   -2.1550    0.0000 H       1  UNL1        0.0663
     48 H           7.4040   -1.0350    0.0000 H       1  UNL1        0.0788
     49 H           5.1350   -1.9650    0.0000 H       1  UNL1        0.0671
     50 H           6.8671    0.2750    0.0000 H       1  UNL1        0.0658
     51 H           5.1350   -2.7250    0.0000 H       1  UNL1        0.0938
     52 H           5.1350   -4.9650    0.0000 H       1  UNL1        0.0671
     53 H           5.1350    0.2750    0.0000 H       1  UNL1        0.0937
     54 H           3.7320   -5.1550    0.0000 H       1  UNL1        0.0648
     55 H           2.8660   -4.0350    0.0000 H       1  UNL1        0.0646
     56 H           3.4030   -2.7250    0.0000 H       1  UNL1        0.0621
     57 H           7.9451   -0.4276    0.0000 H       1  UNL1        0.0584
     58 H           8.3437    0.2627    0.0000 H       1  UNL1        0.0584
     59 H           2.8469   -2.3081    0.0000 H       1  UNL1        0.0255
     60 H           2.0000   -2.5350    0.0000 H       1  UNL1        0.0255
     61 H           2.2269   -3.3819    0.0000 H       1  UNL1        0.0255
     62 H           3.7320   -1.5350    0.0000 H       1  UNL1        0.2101
     63 H           6.0010   -5.4650    0.0000 H       1  UNL1        0.2101
     64 H           3.7320   -6.1550    0.0000 H       1  UNL1        0.2100
     65 H           2.0000   -4.5350    0.0000 H       1  UNL1        0.2100
     66 H           4.8796    1.0473    0.0000 H       1  UNL1        0.0564
     67 H           4.4810    1.7376    0.0000 H       1  UNL1        0.0564
     68 H           8.2700    1.4650    0.0000 H       1  UNL1        0.2095
     69 H           2.7924    1.7627    0.0000 H       1  UNL1        0.0335
     70 H           3.1909    1.0724    0.0000 H       1  UNL1        0.0335
     71 H           9.4651   -2.4650    0.0000 H       1  UNL1        0.0689
     72 H          10.3312   -0.7250    0.0000 H       1  UNL1        0.0626
     73 H           4.8059    2.8450    0.0000 H       1  UNL1        0.0658
     74 H           2.0000    2.8450    0.0000 H       1  UNL1        0.0621
     75 H           2.0000    4.4650    0.0000 H       1  UNL1        0.0655
     76 H          10.6603   -3.1550    0.0000 H       1  UNL1        0.0661
     77 H          12.0632   -0.7250    0.0000 H       1  UNL1        0.0625
     78 H           5.1350    5.2750    0.0000 H       1  UNL1        0.2923
     79 H          13.4662   -1.5350    0.0000 H       1  UNL1        0.0655
     80 H           2.8469    6.6919    0.0000 H       1  UNL1        0.0660
     81 H           2.0000    6.4650    0.0000 H       1  UNL1        0.0660
     82 H           2.2269    5.6181    0.0000 H       1  UNL1        0.0660
     83 H          14.3322   -3.0350    0.0000 H       1  UNL1        0.2923
     84 H          12.6192   -5.3819    0.0000 H       1  UNL1        0.0660
     85 H          13.4662   -5.1550    0.0000 H       1  UNL1        0.0660
     86 H          13.2392   -4.3081    0.0000 H       1  UNL1        0.0660
@<TRIPOS>BOND
     1    16     1    1
     2    20     1    1
     3     2    19    1
     4     2    22    1
     5     3    20    1
     6     3    25    1
     7    17     4    1
     8     4    29    1
     9    22     5    1
    10     5    28    1
    11    18     6    1
    12     6    62    1
    13    21     7    1
    14     7    63    1
    15    23     8    1
    16     8    64    1
    17    24     9    1
    18     9    65    1
    19    10    26    1
    20    10    68    1
    21    11    29    2
    22    12    36    1
    23    12    78    1
    24    13    39    1
    25    13    45    1
    26    14    42    1
    27    14    46    1
    28    15    44    1
    29    15    83    1
    30    16    17    1
    31    16    18    1
    32    16    47    1
    33    17    19    1
    34    17    48    1
    35    18    22    1
    36    18    49    1
    37    19    26    1
    38    19    50    1
    39    20    21    1
    40    20    51    1
    41    21    23    1
    42    21    52    1
    43    22    53    1
    44    23    24    1
    45    23    54    1
    46    24    25    1
    47    24    55    1
    48    25    27    1
    49    25    56    1
    50    26    57    1
    51    26    58    1
    52    27    59    1
    53    27    60    1
    54    27    61    1
    55    28    30    1
    56    28    66    1
    57    28    67    1
    58    29    31    1
    59    30    32    1
    60    30    69    1
    61    30    70    1
    62    31    33    2
    63    31    71    1
    64    32    34   ar
    65    32    35   ar
    66    33    38    1
    67    33    72    1
    68    34    36   ar
    69    34    73    1
    70    35    37   ar
    71    35    74    1
    72    36    39   ar
    73    37    39   ar
    74    37    75    1
    75    38    40   ar
    76    38    41   ar
    77    40    42   ar
    78    40    76    1
    79    41    43   ar
    80    41    77    1
    81    42    44   ar
    82    43    44   ar
    83    43    79    1
    84    45    80    1
    85    45    81    1
    86    45    82    1
    87    46    84    1
    88    46    85    1
    89    46    86    1
