@<TRIPOS>MOLECULE
IMPHY015810
 52 52 0 0 0
SMALL
GASTEIGER

@<TRIPOS>ATOM
      1 C           5.4641    0.2500    0.0000 C.3     1  UNL1       -0.0162
      2 C           4.5981   -0.2500    0.0000 C.3     1  UNL1       -0.0252
      3 C           6.3301   -0.2500    0.0000 C.3     1  UNL1       -0.0428
      4 C           4.5981   -1.2500    0.0000 C.2     1  UNL1       -0.0726
      5 C           6.3301   -1.2500    0.0000 C.3     1  UNL1       -0.0340
      6 C           5.4641    1.2500    0.0000 C.2     1  UNL1       -0.0729
      7 C           5.4641   -1.7500    0.0000 C.2     1  UNL1       -0.0847
      8 C           3.7320   -1.7500    0.0000 C.3     1  UNL1       -0.0283
      9 C           6.3301    1.7500    0.0000 C.3     1  UNL1       -0.0283
     10 C           3.7320   -2.7500    0.0000 C.3     1  UNL1       -0.0308
     11 C           6.3301    2.7500    0.0000 C.3     1  UNL1       -0.0308
     12 C           4.5981    1.7500    0.0000 C.2     1  UNL1       -0.0992
     13 C           2.8660   -3.2500    0.0000 C.2     1  UNL1       -0.0850
     14 C           7.1962    3.2500    0.0000 C.2     1  UNL1       -0.0850
     15 C           2.8660   -4.2500    0.0000 C.2     1  UNL1       -0.0796
     16 C           7.1962    4.2500    0.0000 C.2     1  UNL1       -0.0796
     17 C           2.0000   -4.7500    0.0000 C.3     1  UNL1       -0.0440
     18 C           3.7320   -4.7500    0.0000 C.3     1  UNL1       -0.0440
     19 C           8.0622    4.7500    0.0000 C.3     1  UNL1       -0.0440
     20 C           6.3301    4.7500    0.0000 C.3     1  UNL1       -0.0440
     21 H           6.0010    0.5600    0.0000 H       1  UNL1        0.0349
     22 H           4.3860    0.3326    0.0000 H       1  UNL1        0.0316
     23 H           3.9875   -0.3577    0.0000 H       1  UNL1        0.0316
     24 H           6.9407   -0.3577    0.0000 H       1  UNL1        0.0274
     25 H           6.5422    0.3326    0.0000 H       1  UNL1        0.0274
     26 H           6.5422   -1.8326    0.0000 H       1  UNL1        0.0308
     27 H           6.9407   -1.1423    0.0000 H       1  UNL1        0.0308
     28 H           5.4641   -2.3700    0.0000 H       1  UNL1        0.0572
     29 H           3.5200   -1.1674    0.0000 H       1  UNL1        0.0313
     30 H           3.1215   -1.8577    0.0000 H       1  UNL1        0.0313
     31 H           6.5422    1.1674    0.0000 H       1  UNL1        0.0313
     32 H           6.9407    1.8577    0.0000 H       1  UNL1        0.0313
     33 H           3.9441   -3.3326    0.0000 H       1  UNL1        0.0310
     34 H           4.3426   -2.6423    0.0000 H       1  UNL1        0.0310
     35 H           6.1181    3.3326    0.0000 H       1  UNL1        0.0310
     36 H           5.7196    2.6423    0.0000 H       1  UNL1        0.0310
     37 H           4.5981    2.3700    0.0000 H       1  UNL1        0.0534
     38 H           4.0611    1.4400    0.0000 H       1  UNL1        0.0534
     39 H           2.3291   -2.9400    0.0000 H       1  UNL1        0.0572
     40 H           7.7331    2.9400    0.0000 H       1  UNL1        0.0572
     41 H           1.6900   -4.2131    0.0000 H       1  UNL1        0.0274
     42 H           1.4631   -5.0600    0.0000 H       1  UNL1        0.0274
     43 H           2.3100   -5.2869    0.0000 H       1  UNL1        0.0274
     44 H           3.4220   -5.2869    0.0000 H       1  UNL1        0.0274
     45 H           4.2690   -5.0600    0.0000 H       1  UNL1        0.0274
     46 H           4.0420   -4.2131    0.0000 H       1  UNL1        0.0274
     47 H           8.3722    4.2131    0.0000 H       1  UNL1        0.0274
     48 H           8.5991    5.0600    0.0000 H       1  UNL1        0.0274
     49 H           7.7522    5.2869    0.0000 H       1  UNL1        0.0274
     50 H           6.6401    5.2869    0.0000 H       1  UNL1        0.0274
     51 H           5.7932    5.0600    0.0000 H       1  UNL1        0.0274
     52 H           6.0201    4.2131    0.0000 H       1  UNL1        0.0274
@<TRIPOS>BOND
     1     1     2    1
     2     1     3    1
     3     1     6    1
     4     1    21    1
     5     2     4    1
     6     2    22    1
     7     2    23    1
     8     3     5    1
     9     3    24    1
    10     3    25    1
    11     4     7    2
    12     4     8    1
    13     5     7    1
    14     5    26    1
    15     5    27    1
    16     6     9    1
    17     6    12    2
    18     7    28    1
    19     8    10    1
    20     8    29    1
    21     8    30    1
    22     9    11    1
    23     9    31    1
    24     9    32    1
    25    10    13    1
    26    10    33    1
    27    10    34    1
    28    11    14    1
    29    11    35    1
    30    11    36    1
    31    12    37    1
    32    12    38    1
    33    13    15    2
    34    13    39    1
    35    14    16    2
    36    14    40    1
    37    15    17    1
    38    15    18    1
    39    16    19    1
    40    16    20    1
    41    17    41    1
    42    17    42    1
    43    17    43    1
    44    18    44    1
    45    18    45    1
    46    18    46    1
    47    19    47    1
    48    19    48    1
    49    19    49    1
    50    20    50    1
    51    20    51    1
    52    20    52    1
