@<TRIPOS>MOLECULE
IMPHY014224
 59 60 0 0 0
SMALL
GASTEIGER

@<TRIPOS>ATOM
      1 O           2.5000    0.7500    0.0000 O.3     1  UNL1       -0.3885
      2 O           4.3660    3.2500    0.0000 O.3     1  UNL1       -0.3914
      3 O           3.5000   -3.2500    0.0000 O.3     1  UNL1       -0.3848
      4 C           5.2320    0.7500    0.0000 C.3     1  UNL1       -0.0210
      5 C           5.2320    1.7500    0.0000 C.3     1  UNL1       -0.0040
      6 C           4.3660    0.2500    0.0000 C.3     1  UNL1       -0.0065
      7 C           6.1260    2.2847    0.0000 C.3     1  UNL1       -0.0292
      8 C           3.5000    0.7500    0.0000 C.3     1  UNL1        0.0690
      9 C           4.3660    2.2500    0.0000 C.3     1  UNL1        0.0616
     10 C           6.1260    0.2153    0.0000 C.3     1  UNL1       -0.0469
     11 C           3.5000    1.7500    0.0000 C.3     1  UNL1        0.0024
     12 C           7.0321    1.7708    0.0000 C.3     1  UNL1       -0.0475
     13 C           7.0321    0.7292    0.0000 C.3     1  UNL1       -0.0520
     14 C           5.2320   -0.2500    0.0000 C.3     1  UNL1       -0.0589
     15 C           4.3660   -0.7500    0.0000 C.3     1  UNL1       -0.0442
     16 C           6.6160    3.1564    0.0000 C.3     1  UNL1       -0.0595
     17 C           5.6160    3.1448    0.0000 C.3     1  UNL1       -0.0595
     18 C           3.0000   -0.1160    0.0000 C.3     1  UNL1       -0.0357
     19 C           3.5000   -1.2500    0.0000 C.3     1  UNL1       -0.0203
     20 C           3.5000   -2.2500    0.0000 C.3     1  UNL1        0.0811
     21 C           4.5000   -2.2500    0.0000 C.3     1  UNL1       -0.0325
     22 C           2.5000   -2.2500    0.0000 C.2     1  UNL1       -0.0602
     23 C           2.0000   -3.1160    0.0000 C.2     1  UNL1       -0.1000
     24 H           5.9714    1.3307    0.0000 H       1  UNL1        0.0336
     25 H           3.8291   -0.0600    0.0000 H       1  UNL1        0.0334
     26 H           4.9030    2.5600    0.0000 H       1  UNL1        0.0597
     27 H           5.7214   -0.2544    0.0000 H       1  UNL1        0.0271
     28 H           6.5196   -0.2637    0.0000 H       1  UNL1        0.0271
     29 H           3.2880    2.3326    0.0000 H       1  UNL1        0.0318
     30 H           2.8894    1.6423    0.0000 H       1  UNL1        0.0318
     31 H           7.6429    1.6647    0.0000 H       1  UNL1        0.0271
     32 H           7.2411    2.3545    0.0000 H       1  UNL1        0.0271
     33 H           7.2411    0.1455    0.0000 H       1  UNL1        0.0266
     34 H           7.6429    0.8353    0.0000 H       1  UNL1        0.0266
     35 H           4.6120   -0.2500    0.0000 H       1  UNL1        0.0235
     36 H           5.2320   -0.8700    0.0000 H       1  UNL1        0.0235
     37 H           5.8520   -0.2500    0.0000 H       1  UNL1        0.0235
     38 H           4.5781   -1.3326    0.0000 H       1  UNL1        0.0270
     39 H           4.9766   -0.6423    0.0000 H       1  UNL1        0.0270
     40 H           7.1564    2.8526    0.0000 H       1  UNL1        0.0235
     41 H           6.9197    3.6969    0.0000 H       1  UNL1        0.0235
     42 H           6.0755    3.4602    0.0000 H       1  UNL1        0.0235
     43 H           6.1493    3.4610    0.0000 H       1  UNL1        0.0235
     44 H           5.2998    3.6782    0.0000 H       1  UNL1        0.0235
     45 H           5.0827    2.8287    0.0000 H       1  UNL1        0.0235
     46 H           2.4631    0.1940    0.0000 H       1  UNL1        0.0257
     47 H           2.6900   -0.6530    0.0000 H       1  UNL1        0.0257
     48 H           3.5369   -0.4260    0.0000 H       1  UNL1        0.0257
     49 H           3.2880   -0.6674    0.0000 H       1  UNL1        0.0296
     50 H           2.8894   -1.3577    0.0000 H       1  UNL1        0.0296
     51 H           2.1900    1.2869    0.0000 H       1  UNL1        0.2102
     52 H           3.8291    3.5600    0.0000 H       1  UNL1        0.2098
     53 H           4.5000   -2.8700    0.0000 H       1  UNL1        0.0260
     54 H           5.1200   -2.2500    0.0000 H       1  UNL1        0.0260
     55 H           4.5000   -1.6300    0.0000 H       1  UNL1        0.0260
     56 H           2.1900   -1.7131    0.0000 H       1  UNL1        0.0594
     57 H           2.9631   -3.5600    0.0000 H       1  UNL1        0.2106
     58 H           1.3800   -3.1160    0.0000 H       1  UNL1        0.0533
     59 H           2.3100   -3.6530    0.0000 H       1  UNL1        0.0533
@<TRIPOS>BOND
     1     8     1    1
     2     1    51    1
     3     9     2    1
     4     2    52    1
     5    20     3    1
     6     3    57    1
     7     4     5    1
     8     4     6    1
     9     4    10    1
    10     4    14    1
    11     5     7    1
    12     5     9    1
    13     5    24    1
    14     6     8    1
    15     6    15    1
    16     6    25    1
    17     7    12    1
    18     7    16    1
    19     7    17    1
    20     8    11    1
    21     8    18    1
    22     9    11    1
    23     9    26    1
    24    10    13    1
    25    10    27    1
    26    10    28    1
    27    11    29    1
    28    11    30    1
    29    12    13    1
    30    12    31    1
    31    12    32    1
    32    13    33    1
    33    13    34    1
    34    14    35    1
    35    14    36    1
    36    14    37    1
    37    15    19    1
    38    15    38    1
    39    15    39    1
    40    16    40    1
    41    16    41    1
    42    16    42    1
    43    17    43    1
    44    17    44    1
    45    17    45    1
    46    18    46    1
    47    18    47    1
    48    18    48    1
    49    19    20    1
    50    19    49    1
    51    19    50    1
    52    20    21    1
    53    20    22    1
    54    21    53    1
    55    21    54    1
    56    21    55    1
    57    22    23    2
    58    22    56    1
    59    23    58    1
    60    23    59    1
