@<TRIPOS>MOLECULE
IMPHY017564
 34 34 0 0 0
SMALL
GASTEIGER

@<TRIPOS>ATOM
      1 O           3.6942    0.0997    0.0000 O.3     1  UNL1       -0.4648
      2 O           3.1590   -1.5476    0.0000 O.2     1  UNL1       -0.2512
      3 C           7.1485    0.7386    0.0000 C.3     1  UNL1       -0.0109
      4 C           6.3395    0.1508    0.0000 C.3     1  UNL1       -0.0257
      5 C           6.6485   -0.8003    0.0000 C.3     1  UNL1       -0.0308
      6 C           7.9575    0.1508    0.0000 C.2     1  UNL1       -0.0706
      7 C           5.3884    0.4598    0.0000 C.3     1  UNL1       -0.0146
      8 C           7.6485   -0.8003    0.0000 C.2     1  UNL1       -0.0842
      9 C           7.7363    1.5476    0.0000 C.3     1  UNL1       -0.0558
     10 C           6.5607    1.5476    0.0000 C.3     1  UNL1       -0.0558
     11 C           8.9086    0.4598    0.0000 C.3     1  UNL1       -0.0433
     12 C           4.6453   -0.2093    0.0000 C.3     1  UNL1        0.0927
     13 C           2.9511   -0.5694    0.0000 C.2     1  UNL1        0.3039
     14 C           2.0000   -0.2604    0.0000 C.3     1  UNL1        0.0332
     15 H           6.2425    0.7632    0.0000 H       1  UNL1        0.0313
     16 H           6.0420   -0.9292    0.0000 H       1  UNL1        0.0310
     17 H           6.7133   -1.4169    0.0000 H       1  UNL1        0.0310
     18 H           5.6795    1.0072    0.0000 H       1  UNL1        0.0301
     19 H           4.8998    0.8415    0.0000 H       1  UNL1        0.0301
     20 H           8.0129   -1.3019    0.0000 H       1  UNL1        0.0572
     21 H           8.2378    1.1832    0.0000 H       1  UNL1        0.0238
     22 H           8.1007    2.0492    0.0000 H       1  UNL1        0.0238
     23 H           7.2347    1.9120    0.0000 H       1  UNL1        0.0238
     24 H           7.0623    1.9120    0.0000 H       1  UNL1        0.0238
     25 H           6.1963    2.0492    0.0000 H       1  UNL1        0.0238
     26 H           6.0591    1.1832    0.0000 H       1  UNL1        0.0238
     27 H           9.1001   -0.1299    0.0000 H       1  UNL1        0.0275
     28 H           9.4982    0.6514    0.0000 H       1  UNL1        0.0275
     29 H           8.7170    1.0495    0.0000 H       1  UNL1        0.0275
     30 H           4.3542   -0.7568    0.0000 H       1  UNL1        0.0697
     31 H           5.1338   -0.5910    0.0000 H       1  UNL1        0.0697
     32 H           2.1916    0.3292    0.0000 H       1  UNL1        0.0342
     33 H           1.4103   -0.0688    0.0000 H       1  UNL1        0.0342
     34 H           1.8084   -0.8501    0.0000 H       1  UNL1        0.0342
@<TRIPOS>BOND
     1     1    12    1
     2     1    13    1
     3     2    13    2
     4     3     4    1
     5     3     6    1
     6     3     9    1
     7     3    10    1
     8     4     5    1
     9     4     7    1
    10     4    15    1
    11     5     8    1
    12     5    16    1
    13     5    17    1
    14     6     8    2
    15     6    11    1
    16     7    12    1
    17     7    18    1
    18     7    19    1
    19     8    20    1
    20     9    21    1
    21     9    22    1
    22     9    23    1
    23    10    24    1
    24    10    25    1
    25    10    26    1
    26    11    27    1
    27    11    28    1
    28    11    29    1
    29    12    30    1
    30    12    31    1
    31    13    14    1
    32    14    32    1
    33    14    33    1
    34    14    34    1
