@<TRIPOS>MOLECULE
IMPHY007040
 21 21 0 0 0
SMALL
GASTEIGER

@<TRIPOS>ATOM
      1 O           6.8671   -2.0950    0.0000 O.3     1  UNL1       -0.3947
      2 O           4.2690    2.4050    0.0000 O.3     1  UNL1       -0.5033
      3 O           2.5369    1.4050    0.0000 O.3     1  UNL1       -0.5033
      4 C           5.1350   -0.0950    0.0000 C.ar    1  UNL1       -0.0415
      5 C           6.0010   -0.5950    0.0000 C.3     1  UNL1       -0.0043
      6 C           5.1350    0.9050    0.0000 C.ar    1  UNL1       -0.0133
      7 C           4.2690   -0.5950    0.0000 C.ar    1  UNL1       -0.0548
      8 C           6.0010   -1.5950    0.0000 C.3     1  UNL1        0.0482
      9 C           4.2690    1.4050    0.0000 C.ar    1  UNL1        0.1585
     10 C           3.4030   -0.0950    0.0000 C.ar    1  UNL1       -0.0163
     11 C           3.4030    0.9050    0.0000 C.ar    1  UNL1        0.1582
     12 H           6.6116   -0.7027    0.0000 H       1  UNL1        0.0335
     13 H           6.2131   -0.0124    0.0000 H       1  UNL1        0.0335
     14 H           5.6720    1.2150    0.0000 H       1  UNL1        0.0658
     15 H           4.2690   -1.2150    0.0000 H       1  UNL1        0.0621
     16 H           5.3905   -1.4873    0.0000 H       1  UNL1        0.0560
     17 H           5.7890   -2.1776    0.0000 H       1  UNL1        0.0560
     18 H           2.8660   -0.4050    0.0000 H       1  UNL1        0.0655
     19 H           6.8671   -2.7150    0.0000 H       1  UNL1        0.2094
     20 H           4.8059    2.7150    0.0000 H       1  UNL1        0.2923
     21 H           2.0000    1.0950    0.0000 H       1  UNL1        0.2923
@<TRIPOS>BOND
     1     1     8    1
     2     1    19    1
     3     2     9    1
     4     2    20    1
     5     3    11    1
     6     3    21    1
     7     4     5    1
     8     4     6   ar
     9     4     7   ar
    10     5     8    1
    11     5    12    1
    12     5    13    1
    13     6     9   ar
    14     6    14    1
    15     7    10   ar
    16     7    15    1
    17     8    16    1
    18     8    17    1
    19     9    11   ar
    20    10    11   ar
    21    10    18    1
