@<TRIPOS>MOLECULE
IMPHY017334
 22 21 0 0 0
SMALL
GASTEIGER

@<TRIPOS>ATOM
      1 S           4.5981    0.2500    0.0000 S.3     1  UNL1       -0.0811
      2 S           5.4641   -0.2500    0.0000 S.3     1  UNL1       -0.0129
      3 S           7.1962   -0.2500    0.0000 S.3     1  UNL1       -0.0770
      4 S           6.3301    0.2500    0.0000 S.3     1  UNL1       -0.0126
      5 C           2.8660    0.2500    0.0000 C.3     1  UNL1       -0.0460
      6 C           3.7320   -0.2500    0.0000 C.3     1  UNL1        0.0045
      7 C           2.0000   -0.2500    0.0000 C.3     1  UNL1       -0.0645
      8 C           8.0622    0.2500    0.0000 C.3     1  UNL1        0.0226
      9 C           8.9282   -0.2500    0.0000 C.2     1  UNL1       -0.0805
     10 C           9.7942    0.2500    0.0000 C.2     1  UNL1       -0.1018
     11 H           3.2646    0.7249    0.0000 H       1  UNL1        0.0271
     12 H           2.4675    0.7249    0.0000 H       1  UNL1        0.0271
     13 H           3.3335   -0.7249    0.0000 H       1  UNL1        0.0385
     14 H           4.1306   -0.7249    0.0000 H       1  UNL1        0.0385
     15 H           1.6900    0.2869    0.0000 H       1  UNL1        0.0230
     16 H           1.4631   -0.5600    0.0000 H       1  UNL1        0.0230
     17 H           2.3100   -0.7869    0.0000 H       1  UNL1        0.0230
     18 H           8.4607    0.7249    0.0000 H       1  UNL1        0.0427
     19 H           7.6636    0.7249    0.0000 H       1  UNL1        0.0427
     20 H           8.9282   -0.8700    0.0000 H       1  UNL1        0.0575
     21 H          10.3312   -0.0600    0.0000 H       1  UNL1        0.0532
     22 H           9.7942    0.8700    0.0000 H       1  UNL1        0.0532
@<TRIPOS>BOND
     1     1     2    1
     2     1     6    1
     3     2     4    1
     4     3     4    1
     5     3     8    1
     6     5     6    1
     7     5     7    1
     8     5    11    1
     9     5    12    1
    10     6    13    1
    11     6    14    1
    12     7    15    1
    13     7    16    1
    14     7    17    1
    15     8     9    1
    16     8    18    1
    17     8    19    1
    18     9    10    2
    19     9    20    1
    20    10    21    1
    21    10    22    1
