@<TRIPOS>MOLECULE
IMPHY004038
 33 35 0 0 0
SMALL
GASTEIGER

@<TRIPOS>ATOM
      1 O           6.0682   -0.2704    0.0000 O.3     1  UNL1       -0.4828
      2 O           6.0682    2.7296    0.0000 O.2     1  UNL1       -0.2917
      3 O           4.3198    2.7642    0.0000 O.3     1  UNL1       -0.5058
      4 O           2.5381   -0.2945    0.0000 O.3     1  UNL1       -0.5065
      5 O           8.6663   -2.7704    0.0000 O.3     1  UNL1       -0.5033
      6 O          10.3984   -1.7704    0.0000 O.3     1  UNL1       -0.5033
      7 C           6.9343    0.2296    0.0000 C.3     1  UNL1        0.1323
      8 C           6.9343    1.2296    0.0000 C.3     1  UNL1        0.0520
      9 C           7.8003   -0.2704    0.0000 C.ar    1  UNL1       -0.0033
     10 C           5.2022    1.2296    0.0000 C.ar    1  UNL1        0.1007
     11 C           6.0682    1.7296    0.0000 C.2     1  UNL1        0.1740
     12 C           5.2022    0.2296    0.0000 C.ar    1  UNL1        0.1389
     13 C           4.3083    1.7643    0.0000 C.ar    1  UNL1        0.1343
     14 C           7.8003   -1.2704    0.0000 C.ar    1  UNL1       -0.0099
     15 C           8.6663    0.2296    0.0000 C.ar    1  UNL1       -0.0514
     16 C           4.3083   -0.3051    0.0000 C.ar    1  UNL1        0.0225
     17 C           3.4022    1.2504    0.0000 C.ar    1  UNL1        0.0222
     18 C           3.4022    0.2088    0.0000 C.ar    1  UNL1        0.1238
     19 C           8.6663   -1.7704    0.0000 C.ar    1  UNL1        0.1586
     20 C           9.5323   -0.2704    0.0000 C.ar    1  UNL1       -0.0162
     21 C           9.5323   -1.2704    0.0000 C.ar    1  UNL1        0.1582
     22 H           6.9343   -0.3904    0.0000 H       1  UNL1        0.0789
     23 H           7.5449    1.1220    0.0000 H       1  UNL1        0.0385
     24 H           7.1463    1.8122    0.0000 H       1  UNL1        0.0385
     25 H           7.2634   -1.5804    0.0000 H       1  UNL1        0.0659
     26 H           8.6663    0.8496    0.0000 H       1  UNL1        0.0623
     27 H           4.3154   -0.9250    0.0000 H       1  UNL1        0.0691
     28 H           2.8665    1.5625    0.0000 H       1  UNL1        0.0691
     29 H          10.0693    0.0396    0.0000 H       1  UNL1        0.0655
     30 H           3.7865    3.0804    0.0000 H       1  UNL1        0.2922
     31 H           2.0000    0.0134    0.0000 H       1  UNL1        0.2921
     32 H           8.1294   -3.0804    0.0000 H       1  UNL1        0.2923
     33 H          10.9353   -1.4604    0.0000 H       1  UNL1        0.2923
@<TRIPOS>BOND
     1     1     7    1
     2     1    12    1
     3     2    11    2
     4     3    13    1
     5     3    30    1
     6     4    18    1
     7     4    31    1
     8     5    19    1
     9     5    32    1
    10     6    21    1
    11     6    33    1
    12     7     8    1
    13     7     9    1
    14     7    22    1
    15     8    11    1
    16     8    23    1
    17     8    24    1
    18     9    14   ar
    19     9    15   ar
    20    10    11    1
    21    10    12   ar
    22    10    13   ar
    23    12    16   ar
    24    13    17   ar
    25    14    19   ar
    26    14    25    1
    27    15    20   ar
    28    15    26    1
    29    16    18   ar
    30    16    27    1
    31    17    18   ar
    32    17    28    1
    33    19    21   ar
    34    20    21   ar
    35    20    29    1
