@<TRIPOS>MOLECULE
IMPHY001862
 55 57 0 0 0
SMALL
GASTEIGER

@<TRIPOS>ATOM
      1 O           6.8441   -2.3362    0.0000 O.3     1  UNL1       -0.4812
      2 O           2.3121   -1.3115    0.0000 O.3     1  UNL1       -0.3859
      3 O           4.2297    0.1984    0.0000 O.3     1  UNL1       -0.3843
      4 O           5.0903    0.6953    0.0000 O.3     1  UNL1       -0.5060
      5 C           3.3121   -1.3154    0.0000 C.3     1  UNL1        0.0934
      6 C           5.1121   -2.3362    0.0000 C.2     1  UNL1       -0.0206
      7 C           4.2181   -0.8015    0.0000 C.3     1  UNL1        0.1094
      8 C           5.1121   -1.3362    0.0000 C.2     1  UNL1        0.0007
      9 C           3.3121   -2.3570    0.0000 C.3     1  UNL1       -0.0177
     10 C           4.2181   -2.8708    0.0000 C.3     1  UNL1       -0.0247
     11 C           5.9781   -2.8362    0.0000 C.3     1  UNL1        0.1267
     12 C           5.9781   -0.8362    0.0000 C.ar    1  UNL1        0.0639
     13 C           2.8154   -0.4474    0.0000 C.3     1  UNL1       -0.0333
     14 C           6.8441   -1.3362    0.0000 C.ar    1  UNL1        0.1330
     15 C           6.4781   -3.7022    0.0000 C.3     1  UNL1       -0.0212
     16 C           5.4781   -3.7022    0.0000 C.3     1  UNL1       -0.0212
     17 C           5.9620    0.2053    0.0000 C.ar    1  UNL1        0.1281
     18 C           7.7541   -0.8293    0.0000 C.ar    1  UNL1       -0.0159
     19 C           7.7622    0.2123    0.0000 C.ar    1  UNL1       -0.0404
     20 C           6.8601    0.7331    0.0000 C.ar    1  UNL1       -0.0162
     21 C           8.6301    0.7089    0.0000 C.3     1  UNL1       -0.0275
     22 C           8.6340    1.7089    0.0000 C.3     1  UNL1       -0.0491
     23 C           9.5019    2.2056    0.0000 C.3     1  UNL1       -0.0530
     24 C           9.5058    3.2056    0.0000 C.3     1  UNL1       -0.0559
     25 C          10.3737    3.7022    0.0000 C.3     1  UNL1       -0.0653
     26 H           4.7592   -0.4988    0.0000 H       1  UNL1        0.0673
     27 H           2.7012   -2.2509    0.0000 H       1  UNL1        0.0297
     28 H           3.1030   -2.9407    0.0000 H       1  UNL1        0.0297
     29 H           3.8245   -3.3499    0.0000 H       1  UNL1        0.0312
     30 H           4.6227   -3.3406    0.0000 H       1  UNL1        0.0312
     31 H           3.3535   -0.1395    0.0000 H       1  UNL1        0.0258
     32 H           2.5075    0.0907    0.0000 H       1  UNL1        0.0258
     33 H           2.2773   -0.7554    0.0000 H       1  UNL1        0.0258
     34 H           4.9412   -3.3922    0.0000 H       1  UNL1        0.0271
     35 H           5.1681   -4.2392    0.0000 H       1  UNL1        0.0271
     36 H           6.0150   -4.0122    0.0000 H       1  UNL1        0.0271
     37 H           5.9412   -4.0122    0.0000 H       1  UNL1        0.0271
     38 H           6.7881   -4.2392    0.0000 H       1  UNL1        0.0271
     39 H           7.0150   -3.3922    0.0000 H       1  UNL1        0.0271
     40 H           2.0000   -1.8473    0.0000 H       1  UNL1        0.2103
     41 H           3.6964    0.5146    0.0000 H       1  UNL1        0.2104
     42 H           8.2874   -1.1455    0.0000 H       1  UNL1        0.0657
     43 H           6.8577    1.3531    0.0000 H       1  UNL1        0.0657
     44 H           8.8399    0.1255    0.0000 H       1  UNL1        0.0313
     45 H           9.2411    0.8142    0.0000 H       1  UNL1        0.0313
     46 H           8.4241    2.2923    0.0000 H       1  UNL1        0.0268
     47 H           8.0230    1.6036    0.0000 H       1  UNL1        0.0268
     48 H           5.0831    1.3152    0.0000 H       1  UNL1        0.2922
     49 H           9.7117    1.6221    0.0000 H       1  UNL1        0.0265
     50 H          10.1129    2.3109    0.0000 H       1  UNL1        0.0265
     51 H           9.2960    3.7890    0.0000 H       1  UNL1        0.0263
     52 H           8.8948    3.1002    0.0000 H       1  UNL1        0.0263
     53 H          10.6816    3.1641    0.0000 H       1  UNL1        0.0230
     54 H          10.9118    4.0101    0.0000 H       1  UNL1        0.0230
     55 H          10.0658    4.2403    0.0000 H       1  UNL1        0.0230
@<TRIPOS>BOND
     1     1    11    1
     2     1    14    1
     3     2     5    1
     4     2    40    1
     5     3     7    1
     6     3    41    1
     7     4    17    1
     8     4    48    1
     9     5     7    1
    10     5     9    1
    11     5    13    1
    12     6     8    2
    13     6    10    1
    14     6    11    1
    15     7     8    1
    16     7    26    1
    17     8    12    1
    18     9    10    1
    19     9    27    1
    20     9    28    1
    21    10    29    1
    22    10    30    1
    23    11    15    1
    24    11    16    1
    25    12    14   ar
    26    12    17   ar
    27    13    31    1
    28    13    32    1
    29    13    33    1
    30    14    18   ar
    31    15    37    1
    32    15    38    1
    33    15    39    1
    34    16    34    1
    35    16    35    1
    36    16    36    1
    37    17    20   ar
    38    18    19   ar
    39    18    42    1
    40    19    20   ar
    41    19    21    1
    42    20    43    1
    43    21    22    1
    44    21    44    1
    45    21    45    1
    46    22    23    1
    47    22    46    1
    48    22    47    1
    49    23    24    1
    50    23    49    1
    51    23    50    1
    52    24    25    1
    53    24    51    1
    54    24    52    1
    55    25    53    1
    56    25    54    1
    57    25    55    1
