@<TRIPOS>MOLECULE
IMPHY004099
 71 74 0 0 0
SMALL
GASTEIGER

@<TRIPOS>ATOM
      1 N          10.4926    2.2816    0.0000 N.3     1  UNL1       -0.3054
      2 N           2.8641   -2.2322    0.0000 N.3     1  UNL1       -0.3051
      3 C           8.2572    0.8202    0.0000 C.3     1  UNL1       -0.0247
      4 C           8.2572   -0.1798    0.0000 C.3     1  UNL1       -0.0319
      5 C           7.3912   -0.6798    0.0000 C.3     1  UNL1       -0.0307
      6 C           6.5251   -0.1798    0.0000 C.3     1  UNL1       -0.0285
      7 C           9.2034    1.1249    0.0000 C.3     1  UNL1       -0.0200
      8 C           5.6151   -0.6867    0.0000 C.3     1  UNL1       -0.0079
      9 C           7.3912    1.3202    0.0000 C.3     1  UNL1       -0.0468
     10 C           9.2034   -0.4846    0.0000 C.3     1  UNL1       -0.0491
     11 C           6.5251    0.8202    0.0000 C.3     1  UNL1       -0.0486
     12 C           9.7870    0.3202    0.0000 C.3     1  UNL1       -0.0480
     13 C           7.4072   -1.7213    0.0000 C.3     1  UNL1       -0.0311
     14 C           8.2572    1.8202    0.0000 C.3     1  UNL1       -0.0590
     15 C           5.6071   -1.7283    0.0000 C.2     1  UNL1       -0.0658
     16 C           9.5141    2.0754    0.0000 C.3     1  UNL1        0.0103
     17 C           4.6883   -0.1226    0.0000 C.3     1  UNL1       -0.0422
     18 C           6.5092   -2.2491    0.0000 C.2     1  UNL1       -0.0839
     19 C           5.6228    0.3133    0.0000 C.3     1  UNL1       -0.0556
     20 C           4.6717   -2.2780    0.0000 C.3     1  UNL1       -0.0156
     21 C           3.7404   -0.6505    0.0000 C.3     1  UNL1       -0.0363
     22 C           3.7320   -1.7355    0.0000 C.3     1  UNL1        0.0135
     23 C           8.8462    2.8197    0.0000 C.3     1  UNL1       -0.0492
     24 C          10.8032    3.2322    0.0000 C.3     1  UNL1       -0.0128
     25 C          11.1604    1.5373    0.0000 C.3     1  UNL1       -0.0128
     26 C           2.0000   -1.7288    0.0000 C.3     1  UNL1       -0.0128
     27 C           2.8602   -3.2322    0.0000 C.3     1  UNL1       -0.0128
     28 H           8.3471   -1.0251    0.0000 H       1  UNL1        0.0309
     29 H           8.1305   -1.0992    0.0000 H       1  UNL1        0.0309
     30 H           7.2612    0.2452    0.0000 H       1  UNL1        0.0312
     31 H          10.0431    1.2568    0.0000 H       1  UNL1        0.0321
     32 H           7.7897    1.7951    0.0000 H       1  UNL1        0.0271
     33 H           6.9926    1.7951    0.0000 H       1  UNL1        0.0271
     34 H           8.9524   -1.0515    0.0000 H       1  UNL1        0.0268
     35 H           9.7408   -0.7938    0.0000 H       1  UNL1        0.0268
     36 H           6.3131    1.4028    0.0000 H       1  UNL1        0.0268
     37 H           5.9145    0.7125    0.0000 H       1  UNL1        0.0268
     38 H          10.2479   -0.0946    0.0000 H       1  UNL1        0.0269
     39 H          10.2479    0.7349    0.0000 H       1  UNL1        0.0269
     40 H           7.6252   -2.3017    0.0000 H       1  UNL1        0.0310
     41 H           8.0164   -1.6058    0.0000 H       1  UNL1        0.0310
     42 H           8.8772    1.8202    0.0000 H       1  UNL1        0.0235
     43 H           8.2572    2.4402    0.0000 H       1  UNL1        0.0235
     44 H           7.6372    1.8202    0.0000 H       1  UNL1        0.0235
     45 H           9.7067    2.6647    0.0000 H       1  UNL1        0.0462
     46 H           5.0965    0.3441    0.0000 H       1  UNL1        0.0274
     47 H           4.2984    0.3594    0.0000 H       1  UNL1        0.0274
     48 H           6.5116   -2.8691    0.0000 H       1  UNL1        0.0572
     49 H           6.2428    0.3085    0.0000 H       1  UNL1        0.0238
     50 H           5.6276    0.9333    0.0000 H       1  UNL1        0.0238
     51 H           5.0028    0.3181    0.0000 H       1  UNL1        0.0238
     52 H           4.2744   -2.7540    0.0000 H       1  UNL1        0.0325
     53 H           5.0726   -2.7509    0.0000 H       1  UNL1        0.0325
     54 H           3.5358   -0.0653    0.0000 H       1  UNL1        0.0281
     55 H           3.1288   -0.7519    0.0000 H       1  UNL1        0.0281
     56 H           3.1969   -1.4224    0.0000 H       1  UNL1        0.0465
     57 H           9.3077    3.2338    0.0000 H       1  UNL1        0.0245
     58 H           8.4322    3.2812    0.0000 H       1  UNL1        0.0245
     59 H           8.3848    2.4057    0.0000 H       1  UNL1        0.0245
     60 H          11.3925    3.0396    0.0000 H       1  UNL1        0.0391
     61 H          10.9958    3.8215    0.0000 H       1  UNL1        0.0391
     62 H          10.2139    3.4248    0.0000 H       1  UNL1        0.0391
     63 H          10.6989    1.1233    0.0000 H       1  UNL1        0.0391
     64 H          11.5745    1.0759    0.0000 H       1  UNL1        0.0391
     65 H          11.6219    1.9514    0.0000 H       1  UNL1        0.0391
     66 H           2.3121   -1.1931    0.0000 H       1  UNL1        0.0391
     67 H           1.4643   -1.4168    0.0000 H       1  UNL1        0.0391
     68 H           1.6879   -2.2646    0.0000 H       1  UNL1        0.0391
     69 H           2.2402   -3.2298    0.0000 H       1  UNL1        0.0391
     70 H           2.8578   -3.8522    0.0000 H       1  UNL1        0.0391
     71 H           3.4802   -3.2346    0.0000 H       1  UNL1        0.0391
@<TRIPOS>BOND
     1    16     1    1
     2     1    24    1
     3     1    25    1
     4    22     2    1
     5     2    26    1
     6     2    27    1
     7     3     4    1
     8     3     7    1
     9     3     9    1
    10     3    14    1
    11     4     5    1
    12     4    10    1
    13     4    28    1
    14     5     6    1
    15     5    13    1
    16     5    29    1
    17     6     8    1
    18     6    11    1
    19     6    30    1
    20     7    12    1
    21     7    16    1
    22     7    31    1
    23     8    15    1
    24     8    17    1
    25     8    19    1
    26     9    11    1
    27     9    32    1
    28     9    33    1
    29    10    12    1
    30    10    34    1
    31    10    35    1
    32    11    36    1
    33    11    37    1
    34    12    38    1
    35    12    39    1
    36    13    18    1
    37    13    40    1
    38    13    41    1
    39    14    42    1
    40    14    43    1
    41    14    44    1
    42    15    18    2
    43    15    20    1
    44    16    23    1
    45    16    45    1
    46    17    21    1
    47    17    46    1
    48    17    47    1
    49    18    48    1
    50    19    49    1
    51    19    50    1
    52    19    51    1
    53    20    22    1
    54    20    52    1
    55    20    53    1
    56    21    22    1
    57    21    54    1
    58    21    55    1
    59    22    56    1
    60    23    57    1
    61    23    58    1
    62    23    59    1
    63    24    60    1
    64    24    61    1
    65    24    62    1
    66    25    63    1
    67    25    64    1
    68    25    65    1
    69    26    66    1
    70    26    67    1
    71    26    68    1
    72    27    69    1
    73    27    70    1
    74    27    71    1
