@<TRIPOS>MOLECULE
IMPHY017856
 42 43 0 0 0
SMALL
GASTEIGER

@<TRIPOS>ATOM
      1 O           5.0730   -1.9084    0.0000 O.3     1  UNL1       -0.3912
      2 C           4.1906   -0.3738    0.0000 C.3     1  UNL1        0.0092
      3 C           3.4088    1.2497    0.0000 C.3     1  UNL1       -0.0135
      4 C           4.1906    0.6262    0.0000 C.2     1  UNL1       -0.0618
      5 C           3.4088   -0.9973    0.0000 C.3     1  UNL1       -0.0350
      6 C           5.0846   -0.9085    0.0000 C.3     1  UNL1        0.0625
      7 C           2.4339    1.0272    0.0000 C.3     1  UNL1       -0.0442
      8 C           2.4339   -0.7748    0.0000 C.3     1  UNL1       -0.0498
      9 C           5.9906   -0.3946    0.0000 C.3     1  UNL1       -0.0203
     10 C           2.0000    0.1262    0.0000 C.3     1  UNL1       -0.0520
     11 C           5.9906    0.6470    0.0000 C.3     1  UNL1       -0.0231
     12 C           5.0846    1.1608    0.0000 C.2     1  UNL1       -0.0810
     13 C           3.1863    2.2246    0.0000 C.3     1  UNL1       -0.0561
     14 C           4.0323    2.0315    0.0000 C.3     1  UNL1       -0.0561
     15 C           3.6313   -1.9722    0.0000 C.3     1  UNL1       -0.0618
     16 C           6.8547    1.1503    0.0000 C.3     1  UNL1       -0.0589
     17 H           4.2476   -1.2219    0.0000 H       1  UNL1        0.0373
     18 H           2.9704   -1.4357    0.0000 H       1  UNL1        0.0305
     19 H           5.6185   -1.2236    0.0000 H       1  UNL1        0.0599
     20 H           2.4339    1.6472    0.0000 H       1  UNL1        0.0273
     21 H           1.8294    1.1651    0.0000 H       1  UNL1        0.0273
     22 H           1.8294   -0.9127    0.0000 H       1  UNL1        0.0268
     23 H           2.4339   -1.3948    0.0000 H       1  UNL1        0.0268
     24 H           6.1997   -0.9783    0.0000 H       1  UNL1        0.0296
     25 H           6.6015   -0.2885    0.0000 H       1  UNL1        0.0296
     26 H           1.5153    0.5127    0.0000 H       1  UNL1        0.0266
     27 H           1.5153   -0.2604    0.0000 H       1  UNL1        0.0266
     28 H           6.5282    0.3380    0.0000 H       1  UNL1        0.0341
     29 H           5.0774    1.7808    0.0000 H       1  UNL1        0.0575
     30 H           3.7908    2.3626    0.0000 H       1  UNL1        0.0238
     31 H           3.0483    2.8291    0.0000 H       1  UNL1        0.0238
     32 H           2.5818    2.0866    0.0000 H       1  UNL1        0.0238
     33 H           4.5170    1.6449    0.0000 H       1  UNL1        0.0238
     34 H           4.4189    2.5162    0.0000 H       1  UNL1        0.0238
     35 H           3.5476    2.4181    0.0000 H       1  UNL1        0.0238
     36 H           3.0269   -2.1102    0.0000 H       1  UNL1        0.0233
     37 H           3.7693   -2.5767    0.0000 H       1  UNL1        0.0233
     38 H           4.2358   -1.8343    0.0000 H       1  UNL1        0.0233
     39 H           7.1668    0.6146    0.0000 H       1  UNL1        0.0235
     40 H           7.3905    1.4624    0.0000 H       1  UNL1        0.0235
     41 H           6.5427    1.6861    0.0000 H       1  UNL1        0.0235
     42 H           5.6063   -2.2246    0.0000 H       1  UNL1        0.2098
@<TRIPOS>BOND
     1     6     1    1
     2     1    42    1
     3     2     4    1
     4     2     5    1
     5     2     6    1
     6     2    17    1
     7     3     4    1
     8     3     7    1
     9     3    13    1
    10     3    14    1
    11     4    12    2
    12     5     8    1
    13     5    15    1
    14     5    18    1
    15     6     9    1
    16     6    19    1
    17     7    10    1
    18     7    20    1
    19     7    21    1
    20     8    10    1
    21     8    22    1
    22     8    23    1
    23     9    11    1
    24     9    24    1
    25     9    25    1
    26    10    26    1
    27    10    27    1
    28    11    12    1
    29    11    16    1
    30    11    28    1
    31    12    29    1
    32    13    30    1
    33    13    31    1
    34    13    32    1
    35    14    33    1
    36    14    34    1
    37    14    35    1
    38    15    36    1
    39    15    37    1
    40    15    38    1
    41    16    39    1
    42    16    40    1
    43    16    41    1
