@<TRIPOS>MOLECULE
IMPHY004804
 55 58 0 0 0
SMALL
GASTEIGER

@<TRIPOS>ATOM
      1 O           6.3582    1.1852    0.0000 O.2     1  UNL1       -0.4236
      2 O           8.1421    0.8109    0.0000 O.2     1  UNL1       -0.4237
      3 O           8.8672   -2.6154    0.0000 O.3     1  UNL1       -0.5055
      4 O           7.2151   -2.0422    0.0000 O.2     1  UNL1       -0.2861
      5 O           2.8687    0.2810    0.0000 O.3     1  UNL1       -0.5064
      6 O          11.5069   -0.2570    0.0000 O.3     1  UNL1       -0.5062
      7 C           6.8550   -0.3480    0.0000 C.ar    1  UNL1        0.1136
      8 C           5.8609   -0.3455    0.0000 C.ar    1  UNL1        0.0355
      9 C           5.5545    0.6002    0.0000 C.ar    1  UNL1        0.1468
     10 C           8.5022   -0.8833    0.0000 C.ar    1  UNL1        0.1066
     11 C           7.1640    0.6030    0.0000 C.ar    1  UNL1        0.3042
     12 C           4.5453    0.8320    0.0000 C.ar    1  UNL1        0.0406
     13 C           7.5241   -1.0912    0.0000 C.ar    1  UNL1        0.2076
     14 C           8.8113    0.0678    0.0000 C.ar    1  UNL1        0.1497
     15 C           9.1872   -1.6680    0.0000 C.ar    1  UNL1        0.1381
     16 C          10.2077   -1.4593    0.0000 C.ar    1  UNL1        0.0400
     17 C           5.1793   -1.1250    0.0000 C.ar    1  UNL1       -0.0467
     18 C           4.2482    1.7868    0.0000 C.3     1  UNL1       -0.0023
     19 C           3.8459    0.0685    0.0000 C.ar    1  UNL1        0.1239
     20 C           9.8267    0.3000    0.0000 C.ar    1  UNL1        0.0235
     21 C          10.5296   -0.4686    0.0000 C.ar    1  UNL1        0.1273
     22 C           4.1650   -0.9166    0.0000 C.ar    1  UNL1       -0.0191
     23 C          10.8740   -2.2050    0.0000 C.3     1  UNL1       -0.0023
     24 C           3.2727    2.0069    0.0000 C.2     1  UNL1       -0.0807
     25 C          11.8529   -2.0009    0.0000 C.2     1  UNL1       -0.0807
     26 C           2.9755    2.9617    0.0000 C.2     1  UNL1       -0.0793
     27 C          12.5192   -2.7466    0.0000 C.2     1  UNL1       -0.0793
     28 C           2.0000    3.1817    0.0000 C.3     1  UNL1       -0.0440
     29 C           3.6538    3.6964    0.0000 C.3     1  UNL1       -0.0440
     30 C          13.4981   -2.5425    0.0000 C.3     1  UNL1       -0.0440
     31 C          12.2065   -3.6964    0.0000 C.3     1  UNL1       -0.0440
     32 H           5.3772   -1.7125    0.0000 H       1  UNL1        0.0626
     33 H           4.8631    1.8655    0.0000 H       1  UNL1        0.0358
     34 H           4.2775    2.4061    0.0000 H       1  UNL1        0.0358
     35 H          10.0114    0.8919    0.0000 H       1  UNL1        0.0691
     36 H           3.7515   -1.3786    0.0000 H       1  UNL1        0.0654
     37 H          10.3469   -2.5315    0.0000 H       1  UNL1        0.0358
     38 H          11.1040   -2.7808    0.0000 H       1  UNL1        0.0358
     39 H           2.8521    1.5513    0.0000 H       1  UNL1        0.0575
     40 H          12.0468   -1.4120    0.0000 H       1  UNL1        0.0575
     41 H           9.2767   -3.0809    0.0000 H       1  UNL1        0.2922
     42 H           2.4517   -0.1778    0.0000 H       1  UNL1        0.2921
     43 H          11.6963    0.3334    0.0000 H       1  UNL1        0.2921
     44 H           2.1364    3.7865    0.0000 H       1  UNL1        0.0274
     45 H           1.3952    3.3182    0.0000 H       1  UNL1        0.0274
     46 H           1.8636    2.5769    0.0000 H       1  UNL1        0.0274
     47 H           4.1094    3.2759    0.0000 H       1  UNL1        0.0274
     48 H           4.0744    4.1520    0.0000 H       1  UNL1        0.0274
     49 H           3.1982    4.1170    0.0000 H       1  UNL1        0.0274
     50 H          13.6247   -3.1494    0.0000 H       1  UNL1        0.0274
     51 H          14.1051   -2.4159    0.0000 H       1  UNL1        0.0274
     52 H          13.3716   -1.9355    0.0000 H       1  UNL1        0.0274
     53 H          11.6176   -3.5026    0.0000 H       1  UNL1        0.0274
     54 H          12.0126   -4.2854    0.0000 H       1  UNL1        0.0274
     55 H          12.7954   -3.8903    0.0000 H       1  UNL1        0.0274
@<TRIPOS>BOND
     1     1     9   ar
     2     1    11   ar
     3     2    11   ar
     4     2    14   ar
     5     3    15    1
     6     3    41    1
     7     4    13    2
     8     5    19    1
     9     5    42    1
    10     6    21    1
    11     6    43    1
    12     7     8   ar
    13     7    11   ar
    14     7    13   ar
    15     8     9   ar
    16     8    17   ar
    17     9    12   ar
    18    10    13   ar
    19    10    14   ar
    20    10    15   ar
    21    12    18    1
    22    12    19   ar
    23    14    20   ar
    24    15    16   ar
    25    16    21   ar
    26    16    23    1
    27    17    22   ar
    28    17    32    1
    29    18    24    1
    30    18    33    1
    31    18    34    1
    32    19    22   ar
    33    20    21   ar
    34    20    35    1
    35    22    36    1
    36    23    25    1
    37    23    37    1
    38    23    38    1
    39    24    26    2
    40    24    39    1
    41    25    27    2
    42    25    40    1
    43    26    28    1
    44    26    29    1
    45    27    30    1
    46    27    31    1
    47    28    44    1
    48    28    45    1
    49    28    46    1
    50    29    47    1
    51    29    48    1
    52    29    49    1
    53    30    50    1
    54    30    51    1
    55    30    52    1
    56    31    53    1
    57    31    54    1
    58    31    55    1
