@<TRIPOS>MOLECULE
IMPHY002838
 75 79 0 0 0
SMALL
GASTEIGER

@<TRIPOS>ATOM
      1 O           8.2709   -2.8906    0.0000 O.3     1  UNL1       -0.3850
      2 O           7.7056   -3.2170    0.0000 O.3     1  UNL1       -0.3854
      3 O           7.0628    0.5491    0.0000 O.3     1  UNL1       -0.4571
      4 O           8.5677    0.3054    0.0000 O.3     1  UNL1       -0.3853
      5 O          10.5979   -0.4681    0.0000 O.3     1  UNL1       -0.3892
      6 O           2.5357   -4.0033    0.0000 O.3     1  UNL1       -0.3918
      7 O           5.3307    0.5491    0.0000 O.2     1  UNL1       -0.2450
      8 C           7.9288   -1.9509    0.0000 C.3     1  UNL1        0.1063
      9 C           7.9288   -0.9509    0.0000 C.3     1  UNL1        0.0673
     10 C           7.0628   -2.4509    0.0000 C.3     1  UNL1        0.0987
     11 C           6.1968   -1.9509    0.0000 C.3     1  UNL1       -0.0004
     12 C           5.2868   -2.4578    0.0000 C.3     1  UNL1       -0.0234
     13 C           8.8750   -0.6462    0.0000 C.3     1  UNL1        0.1030
     14 C           7.0628   -0.4509    0.0000 C.3     1  UNL1        0.1145
     15 C           6.1968   -0.9509    0.0000 C.3     1  UNL1       -0.0089
     16 C           5.2787   -3.4994    0.0000 C.3     1  UNL1       -0.0329
     17 C           8.8750   -2.2556    0.0000 C.3     1  UNL1       -0.0178
     18 C           7.0789   -3.4924    0.0000 C.3     1  UNL1       -0.0207
     19 C           9.4586   -1.4509    0.0000 C.3     1  UNL1       -0.0181
     20 C           6.1808   -4.0202    0.0000 C.3     1  UNL1       -0.0469
     21 C           4.3599   -1.8937    0.0000 C.3     1  UNL1       -0.0447
     22 C           7.9288    0.0491    0.0000 C.3     1  UNL1       -0.0507
     23 C           4.3433   -4.0491    0.0000 C.3     1  UNL1       -0.0235
     24 C           5.2945   -1.4578    0.0000 C.3     1  UNL1       -0.0590
     25 C           9.6851   -0.0598    0.0000 C.3     1  UNL1        0.0818
     26 C           3.4120   -2.4216    0.0000 C.3     1  UNL1       -0.0263
     27 C           3.4037   -3.5066    0.0000 C.3     1  UNL1        0.0555
     28 C           9.5823    0.9349    0.0000 C.3     1  UNL1       -0.0362
     29 C           6.1968    1.0491    0.0000 C.2     1  UNL1        0.3395
     30 C           6.1968    2.0491    0.0000 C.ar    1  UNL1        0.0590
     31 C           7.0628    2.5491    0.0000 C.ar    1  UNL1       -0.0478
     32 C           5.3307    2.5491    0.0000 C.ar    1  UNL1       -0.0478
     33 C           7.0628    3.5491    0.0000 C.ar    1  UNL1       -0.0610
     34 C           5.3307    3.5491    0.0000 C.ar    1  UNL1       -0.0610
     35 C           6.1968    4.0491    0.0000 C.ar    1  UNL1       -0.0617
     36 H           6.9329   -1.5259    0.0000 H       1  UNL1        0.0336
     37 H           6.5259   -0.1409    0.0000 H       1  UNL1        0.0741
     38 H           5.9847   -0.3683    0.0000 H       1  UNL1        0.0305
     39 H           5.5862   -1.0586    0.0000 H       1  UNL1        0.0305
     40 H           5.2820   -4.3494    0.0000 H       1  UNL1        0.0307
     41 H           8.6240   -2.8226    0.0000 H       1  UNL1        0.0295
     42 H           9.4124   -2.5649    0.0000 H       1  UNL1        0.0295
     43 H           7.2969   -4.0728    0.0000 H       1  UNL1        0.0294
     44 H           7.6880   -3.3769    0.0000 H       1  UNL1        0.0294
     45 H           9.9195   -1.8656    0.0000 H       1  UNL1        0.0295
     46 H           9.9195   -1.0362    0.0000 H       1  UNL1        0.0295
     47 H           5.7835   -4.4962    0.0000 H       1  UNL1        0.0269
     48 H           6.5818   -4.4931    0.0000 H       1  UNL1        0.0269
     49 H           4.7681   -1.4270    0.0000 H       1  UNL1        0.0271
     50 H           3.9700   -1.4116    0.0000 H       1  UNL1        0.0271
     51 H           8.5488    0.0491    0.0000 H       1  UNL1        0.0238
     52 H           7.9288    0.6691    0.0000 H       1  UNL1        0.0238
     53 H           7.3088    0.0491    0.0000 H       1  UNL1        0.0238
     54 H           3.9460   -4.5250    0.0000 H       1  UNL1        0.0293
     55 H           4.7443   -4.5220    0.0000 H       1  UNL1        0.0293
     56 H           5.9145   -1.4626    0.0000 H       1  UNL1        0.0235
     57 H           5.2993   -0.8378    0.0000 H       1  UNL1        0.0235
     58 H           4.6745   -1.4530    0.0000 H       1  UNL1        0.0235
     59 H          10.1873    0.3038    0.0000 H       1  UNL1        0.0619
     60 H           8.8814   -2.9983    0.0000 H       1  UNL1        0.2103
     61 H           3.2075   -1.8363    0.0000 H       1  UNL1        0.0290
     62 H           2.8004   -2.5230    0.0000 H       1  UNL1        0.0290
     63 H           7.8133   -3.8275    0.0000 H       1  UNL1        0.2103
     64 H           3.4025   -4.1266    0.0000 H       1  UNL1        0.0593
     65 H           8.9833    0.7654    0.0000 H       1  UNL1        0.2103
     66 H          10.1990    0.9986    0.0000 H       1  UNL1        0.0255
     67 H           9.5185    1.5516    0.0000 H       1  UNL1        0.0255
     68 H           8.9656    0.8712    0.0000 H       1  UNL1        0.0255
     69 H          11.1001   -0.1046    0.0000 H       1  UNL1        0.2099
     70 H           2.0000   -3.6912    0.0000 H       1  UNL1        0.2098
     71 H           7.5997    2.2391    0.0000 H       1  UNL1        0.0626
     72 H           4.7938    2.2391    0.0000 H       1  UNL1        0.0626
     73 H           7.5997    3.8591    0.0000 H       1  UNL1        0.0618
     74 H           4.7938    3.8591    0.0000 H       1  UNL1        0.0618
     75 H           6.1968    4.6691    0.0000 H       1  UNL1        0.0618
@<TRIPOS>BOND
     1     8     1    1
     2     1    60    1
     3    10     2    1
     4     2    63    1
     5    14     3    1
     6     3    29    1
     7    13     4    1
     8     4    65    1
     9     5    25    1
    10     5    69    1
    11    27     6    1
    12     6    70    1
    13     7    29    2
    14     8     9    1
    15     8    10    1
    16     8    17    1
    17     9    13    1
    18     9    14    1
    19     9    22    1
    20    10    11    1
    21    10    18    1
    22    11    12    1
    23    11    15    1
    24    11    36    1
    25    12    16    1
    26    12    21    1
    27    12    24    1
    28    13    19    1
    29    13    25    1
    30    14    15    1
    31    14    37    1
    32    15    38    1
    33    15    39    1
    34    16    20    1
    35    16    23    1
    36    16    40    1
    37    17    19    1
    38    17    41    1
    39    17    42    1
    40    18    20    1
    41    18    43    1
    42    18    44    1
    43    19    45    1
    44    19    46    1
    45    20    47    1
    46    20    48    1
    47    21    26    1
    48    21    49    1
    49    21    50    1
    50    22    51    1
    51    22    52    1
    52    22    53    1
    53    23    27    1
    54    23    54    1
    55    23    55    1
    56    24    56    1
    57    24    57    1
    58    24    58    1
    59    25    28    1
    60    25    59    1
    61    26    27    1
    62    26    61    1
    63    26    62    1
    64    27    64    1
    65    28    66    1
    66    28    67    1
    67    28    68    1
    68    29    30    1
    69    30    31   ar
    70    30    32   ar
    71    31    33   ar
    72    31    71    1
    73    32    34   ar
    74    32    72    1
    75    33    35   ar
    76    33    73    1
    77    34    35   ar
    78    34    74    1
    79    35    75    1
