@<TRIPOS>MOLECULE
IMPHY014114
 39 40 0 0 0
SMALL
GASTEIGER

@<TRIPOS>ATOM
      1 C           4.5981    0.5468    0.0000 C.3     1  UNL1       -0.0231
      2 C           4.5981   -0.4532    0.0000 C.3     1  UNL1       -0.0038
      3 C           5.4920    1.0815    0.0000 C.3     1  UNL1       -0.0310
      4 C           5.4920   -0.9879    0.0000 C.3     1  UNL1       -0.0433
      5 C           6.3981    0.5676    0.0000 C.3     1  UNL1       -0.0476
      6 C           6.3981   -0.4740    0.0000 C.3     1  UNL1       -0.0518
      7 C           3.7320    1.0468    0.0000 C.3     1  UNL1       -0.0301
      8 C           3.7320   -0.9532    0.0000 C.2     1  UNL1       -0.0456
      9 C           4.5981   -1.4532    0.0000 C.3     1  UNL1       -0.0553
     10 C           5.9820    1.9532    0.0000 C.3     1  UNL1       -0.0595
     11 C           4.9820    1.9416    0.0000 C.3     1  UNL1       -0.0595
     12 C           2.8660   -0.4532    0.0000 C.2     1  UNL1       -0.0512
     13 C           2.8660    0.5468    0.0000 C.2     1  UNL1       -0.0805
     14 C           3.7320   -1.9532    0.0000 C.2     1  UNL1       -0.0947
     15 C           2.0000   -0.9532    0.0000 C.3     1  UNL1       -0.0397
     16 H           4.5933    1.1668    0.0000 H       1  UNL1        0.0317
     17 H           5.0874   -1.4576    0.0000 H       1  UNL1        0.0274
     18 H           5.8856   -1.4669    0.0000 H       1  UNL1        0.0274
     19 H           7.0089    0.4615    0.0000 H       1  UNL1        0.0271
     20 H           6.6071    1.1513    0.0000 H       1  UNL1        0.0271
     21 H           6.6071   -1.0577    0.0000 H       1  UNL1        0.0266
     22 H           7.0089   -0.3679    0.0000 H       1  UNL1        0.0266
     23 H           4.1306    1.5217    0.0000 H       1  UNL1        0.0311
     24 H           3.3335    1.5217    0.0000 H       1  UNL1        0.0311
     25 H           3.9781   -1.4532    0.0000 H       1  UNL1        0.0238
     26 H           4.5981   -2.0732    0.0000 H       1  UNL1        0.0238
     27 H           5.2181   -1.4532    0.0000 H       1  UNL1        0.0238
     28 H           6.5225    1.6494    0.0000 H       1  UNL1        0.0235
     29 H           6.2857    2.4937    0.0000 H       1  UNL1        0.0235
     30 H           5.4415    2.2570    0.0000 H       1  UNL1        0.0235
     31 H           5.5154    2.2578    0.0000 H       1  UNL1        0.0235
     32 H           4.6658    2.4750    0.0000 H       1  UNL1        0.0235
     33 H           4.4487    1.6254    0.0000 H       1  UNL1        0.0235
     34 H           2.3291    0.8568    0.0000 H       1  UNL1        0.0575
     35 H           3.1951   -2.2632    0.0000 H       1  UNL1        0.0538
     36 H           4.2690   -2.2632    0.0000 H       1  UNL1        0.0538
     37 H           1.6900   -0.4163    0.0000 H       1  UNL1        0.0278
     38 H           1.4631   -1.2632    0.0000 H       1  UNL1        0.0278
     39 H           2.3100   -1.4901    0.0000 H       1  UNL1        0.0278
@<TRIPOS>BOND
     1     1     2    1
     2     1     3    1
     3     1     7    1
     4     1    16    1
     5     2     4    1
     6     2     8    1
     7     2     9    1
     8     3     5    1
     9     3    10    1
    10     3    11    1
    11     4     6    1
    12     4    17    1
    13     4    18    1
    14     5     6    1
    15     5    19    1
    16     5    20    1
    17     6    21    1
    18     6    22    1
    19     7    13    1
    20     7    23    1
    21     7    24    1
    22     8    12    1
    23     8    14    2
    24     9    25    1
    25     9    26    1
    26     9    27    1
    27    10    28    1
    28    10    29    1
    29    10    30    1
    30    11    31    1
    31    11    32    1
    32    11    33    1
    33    12    13    2
    34    12    15    1
    35    13    34    1
    36    14    35    1
    37    14    36    1
    38    15    37    1
    39    15    38    1
    40    15    39    1
