@<TRIPOS>MOLECULE
IMPHY005456
 53 55 0 0 0
SMALL
GASTEIGER

@<TRIPOS>ATOM
      1 O           4.6660   -0.1481    0.0000 O.2     1  UNL1       -0.4503
      2 O           8.1962   -0.1723    0.0000 O.3     1  UNL1       -0.5060
      3 O           6.4144    2.8864    0.0000 O.3     1  UNL1       -0.5055
      4 O           4.6660    2.8519    0.0000 O.2     1  UNL1       -0.2861
      5 O           2.9176    2.8864    0.0000 O.3     1  UNL1       -0.5059
      6 O           2.9176   -1.1827    0.0000 O.3     1  UNL1       -0.5033
      7 C           6.4260   -0.1828    0.0000 C.ar    1  UNL1        0.0412
      8 C           5.5321    0.3519    0.0000 C.ar    1  UNL1        0.1499
      9 C           5.5321    1.3518    0.0000 C.ar    1  UNL1        0.1068
     10 C           7.3321    1.3727    0.0000 C.ar    1  UNL1        0.0403
     11 C           7.3321    0.3310    0.0000 C.ar    1  UNL1        0.1308
     12 C           6.4260    1.8865    0.0000 C.ar    1  UNL1        0.1382
     13 C           6.4144   -1.1827    0.0000 C.3     1  UNL1       -0.0023
     14 C           4.6660    1.8518    0.0000 C.ar    1  UNL1        0.2074
     15 C           8.1962    1.8760    0.0000 C.3     1  UNL1       -0.0023
     16 C           3.8000    1.3518    0.0000 C.ar    1  UNL1        0.1096
     17 C           3.8000    0.3519    0.0000 C.ar    1  UNL1        0.1839
     18 C           7.2746   -1.6927    0.0000 C.2     1  UNL1       -0.0807
     19 C           2.9061    1.8865    0.0000 C.ar    1  UNL1        0.1315
     20 C           9.0641    1.3793    0.0000 C.2     1  UNL1       -0.0807
     21 C           2.9061   -0.1828    0.0000 C.ar    1  UNL1        0.1600
     22 C           2.0000    1.3727    0.0000 C.ar    1  UNL1       -0.0158
     23 C           7.2631   -2.6927    0.0000 C.2     1  UNL1       -0.0793
     24 C           2.0000    0.3310    0.0000 C.ar    1  UNL1       -0.0130
     25 C           9.9282    1.8827    0.0000 C.2     1  UNL1       -0.0793
     26 C           8.1232   -3.2026    0.0000 C.3     1  UNL1       -0.0440
     27 C           6.3913   -3.1826    0.0000 C.3     1  UNL1       -0.0440
     28 C          10.7961    1.3860    0.0000 C.3     1  UNL1       -0.0440
     29 C           9.9243    2.8827    0.0000 C.3     1  UNL1       -0.0440
     30 H           5.8051   -1.0680    0.0000 H       1  UNL1        0.0358
     31 H           6.1957   -1.7629    0.0000 H       1  UNL1        0.0358
     32 H           8.5929    2.3525    0.0000 H       1  UNL1        0.0358
     33 H           7.7958    2.3494    0.0000 H       1  UNL1        0.0358
     34 H           7.8151   -1.3889    0.0000 H       1  UNL1        0.0575
     35 H           9.0665    0.7593    0.0000 H       1  UNL1        0.0575
     36 H           1.4643    1.6847    0.0000 H       1  UNL1        0.0655
     37 H           1.4643    0.0190    0.0000 H       1  UNL1        0.0656
     38 H           8.7343    0.1356    0.0000 H       1  UNL1        0.2922
     39 H           6.9478    3.2026    0.0000 H       1  UNL1        0.2922
     40 H           6.0875   -2.6421    0.0000 H       1  UNL1        0.0274
     41 H           5.8508   -3.4864    0.0000 H       1  UNL1        0.0274
     42 H           6.6951   -3.7231    0.0000 H       1  UNL1        0.0274
     43 H           7.8071   -3.7360    0.0000 H       1  UNL1        0.0274
     44 H           8.6566   -3.5188    0.0000 H       1  UNL1        0.0274
     45 H           8.4394   -2.6693    0.0000 H       1  UNL1        0.0274
     46 H          10.4882    0.8479    0.0000 H       1  UNL1        0.0274
     47 H          11.3343    1.0781    0.0000 H       1  UNL1        0.0274
     48 H          10.5443    2.8851    0.0000 H       1  UNL1        0.0274
     49 H           9.9220    3.5027    0.0000 H       1  UNL1        0.0274
     50 H           9.3044    2.8803    0.0000 H       1  UNL1        0.0274
     51 H          11.1041    1.9242    0.0000 H       1  UNL1        0.0274
     52 H           2.3843    3.2026    0.0000 H       1  UNL1        0.2922
     53 H           2.3843   -1.4989    0.0000 H       1  UNL1        0.2923
@<TRIPOS>BOND
     1     1     8   ar
     2     1    17   ar
     3     2    11    1
     4     2    38    1
     5     3    12    1
     6     3    39    1
     7     4    14    2
     8     5    19    1
     9     5    52    1
    10     6    21    1
    11     6    53    1
    12     7     8   ar
    13     7    11   ar
    14     7    13    1
    15     8     9   ar
    16     9    12   ar
    17     9    14   ar
    18    10    11   ar
    19    10    12   ar
    20    10    15    1
    21    13    18    1
    22    13    30    1
    23    13    31    1
    24    14    16   ar
    25    15    20    1
    26    15    32    1
    27    15    33    1
    28    16    17   ar
    29    16    19   ar
    30    17    21   ar
    31    18    23    2
    32    18    34    1
    33    19    22   ar
    34    20    25    2
    35    20    35    1
    36    21    24   ar
    37    22    24   ar
    38    22    36    1
    39    23    26    1
    40    23    27    1
    41    24    37    1
    42    25    28    1
    43    25    29    1
    44    26    43    1
    45    26    44    1
    46    26    45    1
    47    27    40    1
    48    27    41    1
    49    27    42    1
    50    28    46    1
    51    28    47    1
    52    28    51    1
    53    29    48    1
    54    29    49    1
    55    29    50    1
