@<TRIPOS>MOLECULE
IMPHY016008
 105 104 0 0 0
SMALL
GASTEIGER

@<TRIPOS>ATOM
      1 C           9.7942   -5.9400    0.0000 C.3     1  UNL1       -0.0531
      2 C           8.9282   -5.4400    0.0000 C.3     1  UNL1       -0.0531
      3 C          10.6603   -5.4400    0.0000 C.3     1  UNL1       -0.0531
      4 C           8.0622   -5.9400    0.0000 C.3     1  UNL1       -0.0531
      5 C          11.5263   -5.9400    0.0000 C.3     1  UNL1       -0.0531
      6 C          21.0526    0.5600    0.0000 C.3     1  UNL1       -0.0531
      7 C          20.1865    0.0600    0.0000 C.3     1  UNL1       -0.0531
      8 C          21.0526    1.5600    0.0000 C.3     1  UNL1       -0.0531
      9 C          20.1865   -0.9400    0.0000 C.3     1  UNL1       -0.0531
     10 C           7.1962   -5.4400    0.0000 C.3     1  UNL1       -0.0531
     11 C          12.3923   -5.4400    0.0000 C.3     1  UNL1       -0.0531
     12 C          21.9186    2.0600    0.0000 C.3     1  UNL1       -0.0531
     13 C          19.3205   -1.4400    0.0000 C.3     1  UNL1       -0.0531
     14 C           6.3301   -5.9400    0.0000 C.3     1  UNL1       -0.0531
     15 C          21.9186    3.0600    0.0000 C.3     1  UNL1       -0.0531
     16 C          13.2583   -5.9400    0.0000 C.3     1  UNL1       -0.0530
     17 C          19.3205   -2.4400    0.0000 C.3     1  UNL1       -0.0530
     18 C           5.4641   -5.4400    0.0000 C.3     1  UNL1       -0.0531
     19 C          22.7846    3.5600    0.0000 C.3     1  UNL1       -0.0531
     20 C          14.1244   -5.4400    0.0000 C.3     1  UNL1       -0.0528
     21 C          18.4545   -2.9400    0.0000 C.3     1  UNL1       -0.0528
     22 C           4.5981   -5.9400    0.0000 C.3     1  UNL1       -0.0531
     23 C          22.7846    4.5600    0.0000 C.3     1  UNL1       -0.0531
     24 C          14.9904   -5.9400    0.0000 C.3     1  UNL1       -0.0496
     25 C          18.4545   -3.9400    0.0000 C.3     1  UNL1       -0.0496
     26 C           3.7320   -5.4400    0.0000 C.3     1  UNL1       -0.0533
     27 C          23.6506    5.0600    0.0000 C.3     1  UNL1       -0.0533
     28 C          15.8564   -5.4400    0.0000 C.3     1  UNL1       -0.0348
     29 C          17.5885   -4.4400    0.0000 C.3     1  UNL1       -0.0348
     30 C           2.8660   -5.9400    0.0000 C.3     1  UNL1       -0.0559
     31 C          23.6506    6.0600    0.0000 C.3     1  UNL1       -0.0559
     32 C          16.7224   -5.9400    0.0000 C.2     1  UNL1       -0.0879
     33 C          17.5885   -5.4400    0.0000 C.2     1  UNL1       -0.0879
     34 C           2.0000   -5.4400    0.0000 C.3     1  UNL1       -0.0653
     35 C          24.5167    6.5600    0.0000 C.3     1  UNL1       -0.0653
     36 H           9.3957   -6.4150    0.0000 H       1  UNL1        0.0265
     37 H          10.1928   -6.4150    0.0000 H       1  UNL1        0.0265
     38 H           9.3267   -4.9650    0.0000 H       1  UNL1        0.0265
     39 H           8.5297   -4.9650    0.0000 H       1  UNL1        0.0265
     40 H          11.0588   -4.9650    0.0000 H       1  UNL1        0.0265
     41 H          10.2617   -4.9650    0.0000 H       1  UNL1        0.0265
     42 H           7.6636   -6.4150    0.0000 H       1  UNL1        0.0265
     43 H           8.4607   -6.4150    0.0000 H       1  UNL1        0.0265
     44 H          11.1278   -6.4150    0.0000 H       1  UNL1        0.0265
     45 H          11.9248   -6.4150    0.0000 H       1  UNL1        0.0265
     46 H          21.2646   -0.0226    0.0000 H       1  UNL1        0.0265
     47 H          21.6631    0.6677    0.0000 H       1  UNL1        0.0265
     48 H          19.9745    0.6426    0.0000 H       1  UNL1        0.0265
     49 H          19.5760   -0.0477    0.0000 H       1  UNL1        0.0265
     50 H          20.8405    2.1426    0.0000 H       1  UNL1        0.0265
     51 H          20.4420    1.4523    0.0000 H       1  UNL1        0.0265
     52 H          20.3986   -1.5226    0.0000 H       1  UNL1        0.0265
     53 H          20.7971   -0.8323    0.0000 H       1  UNL1        0.0265
     54 H           7.5947   -4.9650    0.0000 H       1  UNL1        0.0265
     55 H           6.7976   -4.9650    0.0000 H       1  UNL1        0.0265
     56 H          12.7908   -4.9650    0.0000 H       1  UNL1        0.0265
     57 H          11.9938   -4.9650    0.0000 H       1  UNL1        0.0265
     58 H          22.1306    1.4774    0.0000 H       1  UNL1        0.0265
     59 H          22.5292    2.1677    0.0000 H       1  UNL1        0.0265
     60 H          19.1085   -0.8574    0.0000 H       1  UNL1        0.0265
     61 H          18.7099   -1.5477    0.0000 H       1  UNL1        0.0265
     62 H           5.9316   -6.4150    0.0000 H       1  UNL1        0.0265
     63 H           6.7287   -6.4150    0.0000 H       1  UNL1        0.0265
     64 H          21.7065    3.6426    0.0000 H       1  UNL1        0.0265
     65 H          21.3080    2.9523    0.0000 H       1  UNL1        0.0265
     66 H          12.8598   -6.4150    0.0000 H       1  UNL1        0.0265
     67 H          13.6569   -6.4150    0.0000 H       1  UNL1        0.0265
     68 H          19.5326   -3.0226    0.0000 H       1  UNL1        0.0265
     69 H          19.9311   -2.3323    0.0000 H       1  UNL1        0.0265
     70 H           5.8626   -4.9650    0.0000 H       1  UNL1        0.0265
     71 H           5.0656   -4.9650    0.0000 H       1  UNL1        0.0265
     72 H          22.9967    2.9774    0.0000 H       1  UNL1        0.0265
     73 H          23.3952    3.6677    0.0000 H       1  UNL1        0.0265
     74 H          14.5229   -4.9650    0.0000 H       1  UNL1        0.0265
     75 H          13.7258   -4.9650    0.0000 H       1  UNL1        0.0265
     76 H          18.2424   -2.3574    0.0000 H       1  UNL1        0.0265
     77 H          17.8439   -3.0477    0.0000 H       1  UNL1        0.0265
     78 H           4.1996   -6.4150    0.0000 H       1  UNL1        0.0265
     79 H           4.9966   -6.4150    0.0000 H       1  UNL1        0.0265
     80 H          22.5726    5.1426    0.0000 H       1  UNL1        0.0265
     81 H          22.1740    4.4523    0.0000 H       1  UNL1        0.0265
     82 H          14.5919   -6.4150    0.0000 H       1  UNL1        0.0268
     83 H          15.3889   -6.4150    0.0000 H       1  UNL1        0.0268
     84 H          18.6665   -4.5226    0.0000 H       1  UNL1        0.0268
     85 H          19.0651   -3.8323    0.0000 H       1  UNL1        0.0268
     86 H           4.1306   -4.9650    0.0000 H       1  UNL1        0.0265
     87 H           3.3335   -4.9650    0.0000 H       1  UNL1        0.0265
     88 H          23.8627    4.4774    0.0000 H       1  UNL1        0.0265
     89 H          24.2612    5.1677    0.0000 H       1  UNL1        0.0265
     90 H          16.2549   -4.9650    0.0000 H       1  UNL1        0.0307
     91 H          15.4579   -4.9650    0.0000 H       1  UNL1        0.0307
     92 H          17.3764   -3.8574    0.0000 H       1  UNL1        0.0307
     93 H          16.9779   -4.5477    0.0000 H       1  UNL1        0.0307
     94 H           2.4675   -6.4150    0.0000 H       1  UNL1        0.0263
     95 H           3.2646   -6.4150    0.0000 H       1  UNL1        0.0263
     96 H          23.4386    6.6426    0.0000 H       1  UNL1        0.0263
     97 H          23.0401    5.9523    0.0000 H       1  UNL1        0.0263
     98 H          16.7224   -6.5600    0.0000 H       1  UNL1        0.0569
     99 H          18.1254   -5.7500    0.0000 H       1  UNL1        0.0569
    100 H           2.3100   -4.9031    0.0000 H       1  UNL1        0.0230
    101 H           1.4631   -5.1300    0.0000 H       1  UNL1        0.0230
    102 H           1.6900   -5.9769    0.0000 H       1  UNL1        0.0230
    103 H          24.8267    6.0231    0.0000 H       1  UNL1        0.0230
    104 H          25.0536    6.8700    0.0000 H       1  UNL1        0.0230
    105 H          24.2067    7.0969    0.0000 H       1  UNL1        0.0230
@<TRIPOS>BOND
     1     1     2    1
     2     1     3    1
     3     1    36    1
     4     1    37    1
     5     2     4    1
     6     2    38    1
     7     2    39    1
     8     3     5    1
     9     3    40    1
    10     3    41    1
    11     4    10    1
    12     4    42    1
    13     4    43    1
    14     5    11    1
    15     5    44    1
    16     5    45    1
    17     6     7    1
    18     6     8    1
    19     6    46    1
    20     6    47    1
    21     7     9    1
    22     7    48    1
    23     7    49    1
    24     8    12    1
    25     8    50    1
    26     8    51    1
    27     9    13    1
    28     9    52    1
    29     9    53    1
    30    10    14    1
    31    10    54    1
    32    10    55    1
    33    11    16    1
    34    11    56    1
    35    11    57    1
    36    12    15    1
    37    12    58    1
    38    12    59    1
    39    13    17    1
    40    13    60    1
    41    13    61    1
    42    14    18    1
    43    14    62    1
    44    14    63    1
    45    15    19    1
    46    15    64    1
    47    15    65    1
    48    16    20    1
    49    16    66    1
    50    16    67    1
    51    17    21    1
    52    17    68    1
    53    17    69    1
    54    18    22    1
    55    18    70    1
    56    18    71    1
    57    19    23    1
    58    19    72    1
    59    19    73    1
    60    20    24    1
    61    20    74    1
    62    20    75    1
    63    21    25    1
    64    21    76    1
    65    21    77    1
    66    22    26    1
    67    22    78    1
    68    22    79    1
    69    23    27    1
    70    23    80    1
    71    23    81    1
    72    24    28    1
    73    24    82    1
    74    24    83    1
    75    25    29    1
    76    25    84    1
    77    25    85    1
    78    26    30    1
    79    26    86    1
    80    26    87    1
    81    27    31    1
    82    27    88    1
    83    27    89    1
    84    28    32    1
    85    28    90    1
    86    28    91    1
    87    29    33    1
    88    29    92    1
    89    29    93    1
    90    30    34    1
    91    30    94    1
    92    30    95    1
    93    31    35    1
    94    31    96    1
    95    31    97    1
    96    32    33    2
    97    32    98    1
    98    33    99    1
    99    34   100    1
   100    34   101    1
   101    34   102    1
   102    35   103    1
   103    35   104    1
   104    35   105    1
