@<TRIPOS>MOLECULE
IMPHY010606
 98 105 0 0 0
SMALL
GASTEIGER

@<TRIPOS>ATOM
      1 O           8.0340   -3.1386    0.0000 O.3     1  UNL1       -0.4800
      2 O          10.8199   -0.3541    0.0000 O.3     1  UNL1       -0.4797
      3 O           6.8670   -0.9328    0.0000 O.3     1  UNL1       -0.4528
      4 O          12.5900    1.7047    0.0000 O.3     1  UNL1       -0.4534
      5 O           7.2091    0.0070    0.0000 O.3     1  UNL1       -0.5062
      6 O          11.1421   -1.1769    0.0000 O.3     1  UNL1       -0.5062
      7 O           9.0599    2.6806    0.0000 O.3     1  UNL1       -0.5063
      8 O          11.3428   -4.3686    0.0000 O.3     1  UNL1       -0.5065
      9 O           5.3583   -2.1989    0.0000 O.2     1  UNL1       -0.2449
     10 O           6.7897   -5.7840    0.0000 O.3     1  UNL1       -0.5033
     11 O           4.8199   -5.4367    0.0000 O.3     1  UNL1       -0.5033
     12 O          13.4464   -2.8469    0.0000 O.3     1  UNL1       -0.5033
     13 O          11.7182    3.2014    0.0000 O.2     1  UNL1       -0.2449
     14 O          15.1823   -1.8536    0.0000 O.3     1  UNL1       -0.5033
     15 O           2.5369   -1.4327    0.0000 O.3     1  UNL1       -0.5032
     16 O           4.2690    1.5672    0.0000 O.3     1  UNL1       -0.5032
     17 O           2.5369    0.5672    0.0000 O.3     1  UNL1       -0.5009
     18 O          14.3067    5.7114    0.0000 O.3     1  UNL1       -0.5032
     19 O          16.0503    2.7181    0.0000 O.3     1  UNL1       -0.5032
     20 O          16.0426    4.7180    0.0000 O.3     1  UNL1       -0.5009
     21 C           8.7180   -1.2592    0.0000 C.3     1  UNL1        0.0640
     22 C           7.7331   -1.4328    0.0000 C.3     1  UNL1        0.1553
     23 C           9.0599   -0.3194    0.0000 C.ar    1  UNL1        0.0474
     24 C           7.3911   -2.3725    0.0000 C.3     1  UNL1        0.1628
     25 C           9.3607   -2.0252    0.0000 C.ar    1  UNL1        0.0471
     26 C           9.9260    0.1806    0.0000 C.ar    1  UNL1        0.1357
     27 C          11.7260    1.2014    0.0000 C.3     1  UNL1        0.1483
     28 C           9.9260    1.1806    0.0000 C.ar    1  UNL1        0.0398
     29 C          11.7260    0.1597    0.0000 C.3     1  UNL1        0.1623
     30 C          10.8199    1.7152    0.0000 C.3     1  UNL1        0.0204
     31 C           9.0187   -2.9649    0.0000 C.ar    1  UNL1        0.1324
     32 C           8.1939    0.1806    0.0000 C.ar    1  UNL1        0.1277
     33 C           6.7483   -3.1385    0.0000 C.ar    1  UNL1       -0.0001
     34 C          10.3836   -1.8285    0.0000 C.ar    1  UNL1        0.1277
     35 C           9.0599    1.6806    0.0000 C.ar    1  UNL1        0.1271
     36 C           8.1939    1.1806    0.0000 C.ar    1  UNL1        0.0221
     37 C          12.5900   -0.3436    0.0000 C.ar    1  UNL1       -0.0001
     38 C           9.6758   -3.7730    0.0000 C.ar    1  UNL1        0.0221
     39 C          11.0593   -2.6212    0.0000 C.ar    1  UNL1        0.0218
     40 C           7.0904   -4.0782    0.0000 C.ar    1  UNL1       -0.0097
     41 C           5.7635   -2.9648    0.0000 C.ar    1  UNL1       -0.0513
     42 C          10.7030   -3.6001    0.0000 C.ar    1  UNL1        0.1238
     43 C           6.0010   -1.4328    0.0000 C.2     1  UNL1        0.3398
     44 C          12.5862   -1.3436    0.0000 C.ar    1  UNL1       -0.0097
     45 C          13.4580    0.1531    0.0000 C.ar    1  UNL1       -0.0513
     46 C           6.4476   -4.8443    0.0000 C.ar    1  UNL1        0.1586
     47 C           5.1207   -3.7309    0.0000 C.ar    1  UNL1       -0.0162
     48 C          12.5862    2.7047    0.0000 C.2     1  UNL1        0.3398
     49 C           5.4627   -4.6706    0.0000 C.ar    1  UNL1        0.1582
     50 C           5.1350   -0.9327    0.0000 C.ar    1  UNL1        0.0661
     51 C          13.4503   -1.8469    0.0000 C.ar    1  UNL1        0.1586
     52 C          14.3221   -0.3503    0.0000 C.ar    1  UNL1       -0.0162
     53 C          14.3182   -1.3503    0.0000 C.ar    1  UNL1        0.1582
     54 C          13.4503    3.2080    0.0000 C.ar    1  UNL1        0.0661
     55 C           5.1350    0.0673    0.0000 C.ar    1  UNL1       -0.0023
     56 C           4.2690   -1.4327    0.0000 C.ar    1  UNL1       -0.0023
     57 C          14.3182    2.7114    0.0000 C.ar    1  UNL1       -0.0023
     58 C          13.4464    4.2080    0.0000 C.ar    1  UNL1       -0.0023
     59 C           3.4030   -0.9327    0.0000 C.ar    1  UNL1        0.1628
     60 C           4.2690    0.5672    0.0000 C.ar    1  UNL1        0.1628
     61 C           3.4030    0.0673    0.0000 C.ar    1  UNL1        0.2006
     62 C          14.3105    4.7114    0.0000 C.ar    1  UNL1        0.1628
     63 C          15.1823    3.2147    0.0000 C.ar    1  UNL1        0.1628
     64 C          15.1785    4.2147    0.0000 C.ar    1  UNL1        0.2006
     65 H           8.1716   -0.6080    0.0000 H       1  UNL1        0.0440
     66 H           7.8408   -0.8222    0.0000 H       1  UNL1        0.0785
     67 H           6.8542   -2.0625    0.0000 H       1  UNL1        0.0822
     68 H          12.2635    0.8924    0.0000 H       1  UNL1        0.0778
     69 H          12.2635    0.4687    0.0000 H       1  UNL1        0.0822
     70 H          11.2135    2.1942    0.0000 H       1  UNL1        0.0353
     71 H          10.4153    2.1850    0.0000 H       1  UNL1        0.0353
     72 H           7.6570    1.4906    0.0000 H       1  UNL1        0.0691
     73 H           9.4571   -4.3532    0.0000 H       1  UNL1        0.0691
     74 H          11.6694   -2.5112    0.0000 H       1  UNL1        0.0691
     75 H           7.7010   -4.1859    0.0000 H       1  UNL1        0.0659
     76 H           5.5514   -2.3822    0.0000 H       1  UNL1        0.0623
     77 H          12.0481   -1.6515    0.0000 H       1  UNL1        0.0659
     78 H          13.4604    0.7731    0.0000 H       1  UNL1        0.0623
     79 H           6.8106    0.4819    0.0000 H       1  UNL1        0.2921
     80 H          11.7272   -1.3822    0.0000 H       1  UNL1        0.2921
     81 H           8.5230    2.9906    0.0000 H       1  UNL1        0.2921
     82 H           4.5101   -3.6232    0.0000 H       1  UNL1        0.0655
     83 H          14.8602   -0.0423    0.0000 H       1  UNL1        0.0655
     84 H          11.1285   -4.9504    0.0000 H       1  UNL1        0.2921
     85 H           5.6719    0.3773    0.0000 H       1  UNL1        0.0663
     86 H           4.2690   -2.0527    0.0000 H       1  UNL1        0.0663
     87 H           7.4002   -5.8916    0.0000 H       1  UNL1        0.2923
     88 H           5.0320   -6.0193    0.0000 H       1  UNL1        0.2923
     89 H          13.9822   -3.1590    0.0000 H       1  UNL1        0.2923
     90 H          14.3206    2.0914    0.0000 H       1  UNL1        0.0663
     91 H          12.9083    4.5160    0.0000 H       1  UNL1        0.0663
     92 H          15.7205   -1.5457    0.0000 H       1  UNL1        0.2923
     93 H           2.5369   -2.0527    0.0000 H       1  UNL1        0.2923
     94 H           3.7320    1.8772    0.0000 H       1  UNL1        0.2923
     95 H           2.0000    0.2572    0.0000 H       1  UNL1        0.2924
     96 H          13.7685    6.0193    0.0000 H       1  UNL1        0.2923
     97 H          16.5860    3.0301    0.0000 H       1  UNL1        0.2923
     98 H          16.0402    5.3380    0.0000 H       1  UNL1        0.2924
@<TRIPOS>BOND
     1     1    24    1
     2     1    31    1
     3     2    26    1
     4     2    29    1
     5    22     3    1
     6     3    43    1
     7    27     4    1
     8     4    48    1
     9     5    32    1
    10     5    79    1
    11     6    34    1
    12     6    80    1
    13     7    35    1
    14     7    81    1
    15     8    42    1
    16     8    84    1
    17     9    43    2
    18    10    46    1
    19    10    87    1
    20    11    49    1
    21    11    88    1
    22    12    51    1
    23    12    89    1
    24    13    48    2
    25    14    53    1
    26    14    92    1
    27    15    59    1
    28    15    93    1
    29    16    60    1
    30    16    94    1
    31    17    61    1
    32    17    95    1
    33    18    62    1
    34    18    96    1
    35    19    63    1
    36    19    97    1
    37    20    64    1
    38    20    98    1
    39    21    22    1
    40    21    23    1
    41    21    25    1
    42    21    65    1
    43    22    24    1
    44    22    66    1
    45    23    26   ar
    46    23    32   ar
    47    24    33    1
    48    24    67    1
    49    25    31   ar
    50    25    34   ar
    51    26    28   ar
    52    27    29    1
    53    27    30    1
    54    27    68    1
    55    28    30    1
    56    28    35   ar
    57    29    37    1
    58    29    69    1
    59    30    70    1
    60    30    71    1
    61    31    38   ar
    62    32    36   ar
    63    33    40   ar
    64    33    41   ar
    65    34    39   ar
    66    35    36   ar
    67    36    72    1
    68    37    44   ar
    69    37    45   ar
    70    38    42   ar
    71    38    73    1
    72    39    42   ar
    73    39    74    1
    74    40    46   ar
    75    40    75    1
    76    41    47   ar
    77    41    76    1
    78    43    50    1
    79    44    51   ar
    80    44    77    1
    81    45    52   ar
    82    45    78    1
    83    46    49   ar
    84    47    49   ar
    85    47    82    1
    86    48    54    1
    87    50    55   ar
    88    50    56   ar
    89    51    53   ar
    90    52    53   ar
    91    52    83    1
    92    54    57   ar
    93    54    58   ar
    94    55    60   ar
    95    55    85    1
    96    56    59   ar
    97    56    86    1
    98    57    63   ar
    99    57    90    1
   100    58    62   ar
   101    58    91    1
   102    59    61   ar
   103    60    61   ar
   104    62    64   ar
   105    63    64   ar
