@<TRIPOS>MOLECULE
IMPHY011380
 45 47 0 0 0
SMALL
GASTEIGER

@<TRIPOS>ATOM
      1 O          12.2311    0.2400    0.0000 O.3     1  UNL1       -0.3535
      2 O          18.1886    1.8268    0.0000 O.3     1  UNL1       -0.3561
      3 O          14.1991   -0.4594    0.0000 O.3     1  UNL1       -0.2205
      4 O          16.2206    2.5261    0.0000 O.3     1  UNL1       -0.2205
      5 O          10.2631   -0.4594    0.0000 O.3     1  UNL1       -0.2205
      6 O           6.8747    0.2608    0.0000 O.3     1  UNL1       -0.2232
      7 O          28.9467   -1.2197    0.0000 O.3     1  UNL1       -0.4449
      8 O          28.8535    0.5599    0.0000 O.2     1  UNL1       -0.2453
      9 C          13.0401    0.8278    0.0000 C.3     1  UNL1        0.1455
     10 C          17.3796    1.2390    0.0000 C.3     1  UNL1        0.1454
     11 C          11.4221    0.8278    0.0000 C.3     1  UNL1        0.1455
     12 C          12.7311    1.7788    0.0000 C.3     1  UNL1        0.0348
     13 C          13.9912    0.5187    0.0000 C.3     1  UNL1        0.1790
     14 C          11.7311    1.7788    0.0000 C.3     1  UNL1        0.0348
     15 C          16.4285    1.5480    0.0000 C.3     1  UNL1        0.1790
     16 C          18.9976    1.2390    0.0000 C.3     1  UNL1        0.1153
     17 C          17.6886    0.2879    0.0000 C.3     1  UNL1        0.0347
     18 C          14.7343    1.1879    0.0000 C.3     1  UNL1        0.0381
     19 C          18.6886    0.2879    0.0000 C.3     1  UNL1        0.0321
     20 C          15.6854    0.8789    0.0000 C.3     1  UNL1        0.0381
     21 C          10.4710    0.5187    0.0000 C.3     1  UNL1        0.1789
     22 C          19.9486    1.5480    0.0000 C.3     1  UNL1        0.0296
     23 C           9.7279    1.1879    0.0000 C.3     1  UNL1        0.0355
     24 C          20.6918    0.8789    0.0000 C.3     1  UNL1        0.0025
     25 C           8.7768    0.8789    0.0000 C.3     1  UNL1        0.0053
     26 C          21.6428    1.1879    0.0000 C.3     1  UNL1        0.0001
     27 C           8.0337    1.5480    0.0000 C.3     1  UNL1        0.0330
     28 C          22.3860    0.5187    0.0000 C.3     1  UNL1        0.0000
     29 C           7.0826    1.2390    0.0000 C.3     1  UNL1        0.1520
     30 C          23.3370    0.8278    0.0000 C.3     1  UNL1        0.0000
     31 C           6.3395    1.9081    0.0000 C.3     1  UNL1        0.0329
     32 C          24.0802    0.1586    0.0000 C.3     1  UNL1        0.0000
     33 C           5.3884    1.5991    0.0000 C.3     1  UNL1        0.0026
     34 C          25.0312    0.4677    0.0000 C.3     1  UNL1        0.0003
     35 C           4.6453    2.2682    0.0000 C.3     1  UNL1        0.0001
     36 C          25.7744   -0.2015    0.0000 C.3     1  UNL1        0.0049
     37 C           3.6942    1.9592    0.0000 C.3     1  UNL1        0.0000
     38 C          26.7255    0.1075    0.0000 C.3     1  UNL1        0.0327
     39 C           2.9511    2.6283    0.0000 C.3     1  UNL1        0.0000
     40 C          27.4686   -0.5616    0.0000 C.2     1  UNL1        0.0526
     41 C           2.0000    2.3193    0.0000 C.3     1  UNL1        0.0000
     42 C          27.3641   -1.5561    0.0000 C.2     1  UNL1        0.0188
     43 C          28.2776   -1.9629    0.0000 C.3     1  UNL1        0.1912
     44 C          28.4467   -0.3537    0.0000 C.2     1  UNL1        0.3372
     45 C          28.4855   -2.9410    0.0000 C.3     1  UNL1        0.0524
@<TRIPOS>BOND
     1     1     9    1
     2     1    11    1
     3     2    10    1
     4     2    16    1
     5     6    29    1
     6     7    43    1
     7     7    44    1
     8     8    44    2
     9     9    12    1
    10     9    13    1
    11    10    15    1
    12    10    17    1
    13    11    14    1
    14    11    21    1
    15    12    14    1
    16    13     3    1
    17    13    18    1
    18    15     4    1
    19    15    20    1
    20    16    19    1
    21    16    22    1
    22    17    19    1
    23    18    20    1
    24    21     5    1
    25    21    23    1
    26    22    24    1
    27    23    25    1
    28    24    26    1
    29    25    27    1
    30    26    28    1
    31    27    29    1
    32    28    30    1
    33    29    31    1
    34    30    32    1
    35    31    33    1
    36    32    34    1
    37    33    35    1
    38    34    36    1
    39    35    37    1
    40    36    38    1
    41    37    39    1
    42    38    40    1
    43    39    41    1
    44    40    42    2
    45    40    44    1
    46    42    43    1
    47    43    45    1
