@<TRIPOS>MOLECULE
IMPHY000368
 48 50 0 0 0
SMALL
GASTEIGER

@<TRIPOS>ATOM
      1 O           6.0010    1.2134    0.0000 O.3     1  UNL1       -0.3506
      2 O           6.8671   -0.2866    0.0000 O.3     1  UNL1       -0.3195
      3 O           5.1350   -0.2866    0.0000 O.3     1  UNL1       -0.3404
      4 O           8.9900    3.4687    0.0000 O.3     1  UNL1       -0.3875
      5 O           6.8671   -2.2866    0.0000 O.3     1  UNL1       -0.3841
      6 O           5.1350   -3.2866    0.0000 O.3     1  UNL1       -0.3864
      7 O           3.4030   -2.2866    0.0000 O.3     1  UNL1       -0.3865
      8 O           9.9685   -0.2480    0.0000 O.3     1  UNL1       -0.3907
      9 O           2.5369   -0.7866    0.0000 O.3     1  UNL1       -0.3924
     10 C           7.7331    2.2134    0.0000 C.3     1  UNL1        0.0019
     11 C           7.7331    1.2134    0.0000 C.3     1  UNL1        0.0390
     12 C           6.8671    0.7134    0.0000 C.3     1  UNL1        0.1690
     13 C           8.6793    2.5182    0.0000 C.3     1  UNL1        0.0773
     14 C           6.8671    2.7134    0.0000 C.3     1  UNL1       -0.0232
     15 C           8.6793    0.9087    0.0000 C.2     1  UNL1       -0.0378
     16 C           9.2629    1.7134    0.0000 C.2     1  UNL1       -0.0538
     17 C           6.0010    2.2134    0.0000 C.3     1  UNL1        0.0510
     18 C           6.0010   -0.7866    0.0000 C.3     1  UNL1        0.1908
     19 C           6.0010   -1.7866    0.0000 C.3     1  UNL1        0.1342
     20 C           5.1350   -2.2866    0.0000 C.3     1  UNL1        0.1141
     21 C           4.2690   -1.7866    0.0000 C.3     1  UNL1        0.1119
     22 C           4.2690   -0.7866    0.0000 C.3     1  UNL1        0.1130
     23 C           8.9900   -0.0418    0.0000 C.3     1  UNL1        0.0658
     24 C           3.4030   -0.2866    0.0000 C.3     1  UNL1        0.0730
     25 H           7.8230    3.0587    0.0000 H       1  UNL1        0.0337
     26 H           7.8230    0.3682    0.0000 H       1  UNL1        0.0399
     27 H           7.4040    0.4034    0.0000 H       1  UNL1        0.0917
     28 H           8.2418    2.9575    0.0000 H       1  UNL1        0.0641
     29 H           7.2656    3.1884    0.0000 H       1  UNL1        0.0291
     30 H           6.4685    3.1884    0.0000 H       1  UNL1        0.0291
     31 H           9.8829    1.7134    0.0000 H       1  UNL1        0.0598
     32 H           5.7890    2.7961    0.0000 H       1  UNL1        0.0561
     33 H           5.3905    2.1058    0.0000 H       1  UNL1        0.0561
     34 H           6.0010   -0.1666    0.0000 H       1  UNL1        0.0938
     35 H           6.0010   -2.4066    0.0000 H       1  UNL1        0.0671
     36 H           4.5981   -2.5966    0.0000 H       1  UNL1        0.0648
     37 H           3.7320   -1.4766    0.0000 H       1  UNL1        0.0647
     38 H           4.2690   -0.1666    0.0000 H       1  UNL1        0.0647
     39 H           8.3762   -0.1292    0.0000 H       1  UNL1        0.0604
     40 H           8.9694   -0.6615    0.0000 H       1  UNL1        0.0604
     41 H           9.5966    3.5966    0.0000 H       1  UNL1        0.2102
     42 H           3.8015    0.1884    0.0000 H       1  UNL1        0.0584
     43 H           3.0044    0.1884    0.0000 H       1  UNL1        0.0584
     44 H           6.8671   -2.9066    0.0000 H       1  UNL1        0.2101
     45 H           4.5981   -3.5966    0.0000 H       1  UNL1        0.2100
     46 H           3.4030   -2.9066    0.0000 H       1  UNL1        0.2100
     47 H          10.1611   -0.8373    0.0000 H       1  UNL1        0.2098
     48 H           2.0000   -0.4766    0.0000 H       1  UNL1        0.2095
@<TRIPOS>BOND
     1     1    12    1
     2     1    17    1
     3    12     2    1
     4    18     2    1
     5     3    18    1
     6     3    22    1
     7    13     4    1
     8     4    41    1
     9    19     5    1
    10     5    44    1
    11    20     6    1
    12     6    45    1
    13    21     7    1
    14     7    46    1
    15     8    23    1
    16     8    47    1
    17     9    24    1
    18     9    48    1
    19    10    11    1
    20    10    13    1
    21    10    14    1
    22    10    25    1
    23    11    12    1
    24    11    15    1
    25    11    26    1
    26    12    27    1
    27    13    16    1
    28    13    28    1
    29    14    17    1
    30    14    29    1
    31    14    30    1
    32    15    16    2
    33    15    23    1
    34    16    31    1
    35    17    32    1
    36    17    33    1
    37    18    19    1
    38    18    34    1
    39    19    20    1
    40    19    35    1
    41    20    21    1
    42    20    36    1
    43    21    22    1
    44    21    37    1
    45    22    24    1
    46    22    38    1
    47    23    39    1
    48    23    40    1
    49    24    42    1
    50    24    43    1
