@<TRIPOS>MOLECULE
IMPHY010401
 21 22 0 0 0
SMALL
GASTEIGER

@<TRIPOS>ATOM
      1 O           5.4920   -0.7420    0.0000 O.2     1  UNL1       -0.4220
      2 O           2.0000   -0.7073    0.0000 O.3     1  UNL1       -0.5064
      3 O           7.2622   -0.7315    0.0000 O.2     1  UNL1       -0.2452
      4 C           4.5981    0.7927    0.0000 C.ar    1  UNL1        0.0181
      5 C           2.8660    0.7927    0.0000 C.ar    1  UNL1       -0.0082
      6 C           4.5981   -0.2073    0.0000 C.ar    1  UNL1        0.1425
      7 C           3.7320    1.2927    0.0000 C.ar    1  UNL1       -0.0447
      8 C           2.8660   -0.2073    0.0000 C.ar    1  UNL1        0.1233
      9 C           3.7320   -0.7073    0.0000 C.ar    1  UNL1        0.0231
     10 C           5.4920    1.3273    0.0000 C.ar    1  UNL1       -0.0443
     11 C           2.0000    1.2927    0.0000 C.3     1  UNL1       -0.0362
     12 C           6.3981    0.8135    0.0000 C.ar    1  UNL1        0.0236
     13 C           6.3981   -0.2281    0.0000 C.ar    1  UNL1        0.3372
     14 H           3.7320    1.9127    0.0000 H       1  UNL1        0.0628
     15 H           3.7320   -1.3273    0.0000 H       1  UNL1        0.0691
     16 H           5.4848    1.9473    0.0000 H       1  UNL1        0.0627
     17 H           2.3100    1.8296    0.0000 H       1  UNL1        0.0279
     18 H           1.4631    1.6027    0.0000 H       1  UNL1        0.0279
     19 H           1.6900    0.7557    0.0000 H       1  UNL1        0.0279
     20 H           6.9338    1.1256    0.0000 H       1  UNL1        0.0689
     21 H           2.0000   -1.3273    0.0000 H       1  UNL1        0.2921
@<TRIPOS>BOND
     1     1     6   ar
     2     1    13   ar
     3     2     8    1
     4     2    21    1
     5     3    13    2
     6     4     6   ar
     7     4     7   ar
     8     4    10   ar
     9     5     7   ar
    10     5     8   ar
    11     5    11    1
    12     6     9   ar
    13     7    14    1
    14     8     9   ar
    15     9    15    1
    16    10    12   ar
    17    10    16    1
    18    11    17    1
    19    11    18    1
    20    11    19    1
    21    12    13   ar
    22    12    20    1
