@<TRIPOS>MOLECULE
IMPHY008816
 12 13 0 0 0
SMALL
GASTEIGER

@<TRIPOS>ATOM
      1 O           4.5332   -1.0542    0.0000 O.3     1  UNL1       -0.2219
      2 O           2.5016   -0.2842    0.0000 O.3     1  UNL1       -0.2176
      3 N           5.1752    1.2059    0.0000 N.3     1  UNL1       -0.2761
      4 C           5.1752    0.2059    0.0000 C.3     1  UNL1        0.0549
      5 C           4.2242   -0.1031    0.0000 C.3     1  UNL1        0.1669
      6 C           6.1214   -0.0988    0.0000 C.3     1  UNL1        0.0146
      7 C           3.6364    0.7059    0.0000 C.3     1  UNL1        0.0514
      8 C           4.2242    1.5149    0.0000 C.3     1  UNL1        0.0745
      9 C           6.1214    1.5106    0.0000 C.3     1  UNL1        0.0719
     10 C           6.7050    0.7059    0.0000 C.3     1  UNL1        0.0184
     11 C           3.4151   -0.6909    0.0000 C.3     1  UNL1        0.2132
     12 H           5.1762   -0.5941    0.0000 H       1  UNL1        0.0500
@<TRIPOS>BOND
     1     2    11    1
     2     3     4    1
     3     3     8    1
     4     3     9    1
     5     4     5    1
     6     4     6    1
     7     4    12    1
     8     5     1    1
     9     5     7    1
    10     5    11    1
    11     6    10    1
    12     7     8    1
    13     9    10    1
