@<TRIPOS>MOLECULE
IMPHY005644
 36 40 0 0 0
SMALL
GASTEIGER

@<TRIPOS>ATOM
      1 O           6.2719   -0.7339    0.0000 O.3     1  UNL1       -0.4830
      2 O           6.4811    2.2379    0.0000 O.3     1  UNL1       -0.4907
      3 O           2.2123   -0.7507    0.0000 O.3     1  UNL1       -0.4526
      4 O           2.8914   -2.2725    0.0000 O.3     1  UNL1       -0.4525
      5 O          10.0112    2.2620    0.0000 O.3     1  UNL1       -0.4950
      6 C           5.6151    0.7379    0.0000 C.3     1  UNL1        0.0631
      7 C           6.4811    0.2379    0.0000 C.3     1  UNL1        0.1385
      8 C           4.8780    0.0708    0.0000 C.ar    1  UNL1        0.0082
      9 C           5.6151    1.7379    0.0000 C.3     1  UNL1        0.1002
     10 C           7.3471    0.7379    0.0000 C.ar    1  UNL1        0.0352
     11 C           5.2832   -0.8370    0.0000 C.ar    1  UNL1        0.1288
     12 C           7.3471    1.7379    0.0000 C.ar    1  UNL1        0.1307
     13 C           3.8499    0.1940    0.0000 C.ar    1  UNL1       -0.0090
     14 C           4.6882   -1.6845    0.0000 C.ar    1  UNL1        0.0259
     15 C           8.2410    0.2032    0.0000 C.ar    1  UNL1       -0.0481
     16 C           3.2356   -0.6395    0.0000 C.ar    1  UNL1        0.1667
     17 C           3.6576   -1.5851    0.0000 C.ar    1  UNL1        0.1697
     18 C           8.2410    2.2725    0.0000 C.ar    1  UNL1        0.0222
     19 C           9.1471    0.7171    0.0000 C.ar    1  UNL1       -0.0193
     20 C           9.1471    1.7587    0.0000 C.ar    1  UNL1        0.1236
     21 C           2.0000   -1.7579    0.0000 C.3     1  UNL1        0.2332
     22 C          10.8792    1.7654    0.0000 C.3     1  UNL1        0.0788
     23 H           4.8381    1.0826    0.0000 H       1  UNL1        0.0423
     24 H           7.1681   -0.2626    0.0000 H       1  UNL1        0.0793
     25 H           5.4030    2.3205    0.0000 H       1  UNL1        0.0704
     26 H           5.0045    1.6302    0.0000 H       1  UNL1        0.0704
     27 H           3.6038    0.7631    0.0000 H       1  UNL1        0.0659
     28 H           4.9474   -2.2477    0.0000 H       1  UNL1        0.0692
     29 H           8.2339   -0.4167    0.0000 H       1  UNL1        0.0624
     30 H           8.2339    2.8925    0.0000 H       1  UNL1        0.0691
     31 H           9.6828    0.4050    0.0000 H       1  UNL1        0.0654
     32 H           1.4101   -1.5670    0.0000 H       1  UNL1        0.1166
     33 H           1.7482   -2.3244    0.0000 H       1  UNL1        0.1166
     34 H          10.5712    1.2272    0.0000 H       1  UNL1        0.0660
     35 H          11.4173    1.4574    0.0000 H       1  UNL1        0.0660
     36 H          11.1871    2.3035    0.0000 H       1  UNL1        0.0660
@<TRIPOS>BOND
     1     1     7    1
     2     1    11    1
     3     2     9    1
     4     2    12    1
     5     3    16    1
     6     3    21    1
     7     4    17    1
     8     4    21    1
     9     5    20    1
    10     5    22    1
    11     6     7    1
    12     6     8    1
    13     6     9    1
    14     6    23    1
    15     7    10    1
    16     7    24    1
    17     8    11   ar
    18     8    13   ar
    19     9    25    1
    20     9    26    1
    21    10    12   ar
    22    10    15   ar
    23    11    14   ar
    24    12    18   ar
    25    13    16   ar
    26    13    27    1
    27    14    17   ar
    28    14    28    1
    29    15    19   ar
    30    15    29    1
    31    16    17   ar
    32    18    20   ar
    33    18    30    1
    34    19    20   ar
    35    19    31    1
    36    21    32    1
    37    21    33    1
    38    22    34    1
    39    22    35    1
    40    22    36    1
