@<TRIPOS>MOLECULE
IMPHY004961
 29 28 0 0 0
SMALL
GASTEIGER

@<TRIPOS>ATOM
      1 O           7.1962    0.7500    0.0000 O.3     1  UNL1       -0.3851
      2 C           3.7320   -0.2500    0.0000 C.3     1  UNL1        0.0009
      3 C           6.3301    0.2500    0.0000 C.3     1  UNL1        0.0786
      4 C           4.5981    0.2500    0.0000 C.2     1  UNL1       -0.0759
      5 C           5.4641   -0.2500    0.0000 C.2     1  UNL1       -0.0565
      6 C           3.2320    0.6160    0.0000 C.3     1  UNL1       -0.0529
      7 C           4.2320   -1.1160    0.0000 C.3     1  UNL1       -0.0529
      8 C           2.8660   -0.7500    0.0000 C.2     1  UNL1       -0.0817
      9 C           6.8301   -0.6160    0.0000 C.3     1  UNL1       -0.0327
     10 C           5.8301    1.1160    0.0000 C.3     1  UNL1       -0.0327
     11 C           2.0000   -0.2500    0.0000 C.2     1  UNL1       -0.1018
     12 H           4.5981    0.8700    0.0000 H       1  UNL1        0.0578
     13 H           5.4641   -0.8700    0.0000 H       1  UNL1        0.0597
     14 H           3.7690    0.9260    0.0000 H       1  UNL1        0.0241
     15 H           2.9220    1.1530    0.0000 H       1  UNL1        0.0241
     16 H           2.6951    0.3060    0.0000 H       1  UNL1        0.0241
     17 H           3.6951   -1.4260    0.0000 H       1  UNL1        0.0241
     18 H           4.5420   -1.6530    0.0000 H       1  UNL1        0.0241
     19 H           4.7690   -0.8060    0.0000 H       1  UNL1        0.0241
     20 H           2.8660   -1.3700    0.0000 H       1  UNL1        0.0575
     21 H           6.2932   -0.9260    0.0000 H       1  UNL1        0.0260
     22 H           7.1401   -1.1530    0.0000 H       1  UNL1        0.0260
     23 H           7.3671   -0.3060    0.0000 H       1  UNL1        0.0260
     24 H           6.3671    1.4260    0.0000 H       1  UNL1        0.0260
     25 H           5.5201    1.6530    0.0000 H       1  UNL1        0.0260
     26 H           5.2932    0.8060    0.0000 H       1  UNL1        0.0260
     27 H           7.7331    0.4400    0.0000 H       1  UNL1        0.2106
     28 H           2.0000    0.3700    0.0000 H       1  UNL1        0.0532
     29 H           1.4631   -0.5600    0.0000 H       1  UNL1        0.0532
@<TRIPOS>BOND
     1     1     3    1
     2     1    27    1
     3     2     4    1
     4     2     6    1
     5     2     7    1
     6     2     8    1
     7     3     5    1
     8     3     9    1
     9     3    10    1
    10     4     5    2
    11     4    12    1
    12     5    13    1
    13     6    14    1
    14     6    15    1
    15     6    16    1
    16     7    17    1
    17     7    18    1
    18     7    19    1
    19     8    11    2
    20     8    20    1
    21     9    21    1
    22     9    22    1
    23     9    23    1
    24    10    24    1
    25    10    25    1
    26    10    26    1
    27    11    28    1
    28    11    29    1
