@<TRIPOS>MOLECULE
IMPHY014037
 44 48 0 0 0
SMALL
GASTEIGER

@<TRIPOS>ATOM
      1 O           7.2192   -0.1905    0.0000 O.3     1  UNL1       -0.4813
      2 O           7.4284    2.7813    0.0000 O.2     1  UNL1       -0.4894
      3 O           5.6964    1.7813    0.0000 O.3     1  UNL1       -0.3767
      4 O           8.2944    0.2813    0.0000 O.3     1  UNL1       -0.3734
      5 O           3.9852   -1.9245    0.0000 O.3     1  UNL1       -0.4815
      6 O          10.9585    2.8054    0.0000 O.2     1  UNL1       -0.2878
      7 C           6.5624    1.2813    0.0000 C.3     1  UNL1        0.1680
      8 C           7.4284    0.7813    0.0000 C.3     1  UNL1        0.1752
      9 C           8.2944    1.2813    0.0000 C.3     1  UNL1        0.1811
     10 C           5.8254    0.6142    0.0000 C.ar    1  UNL1        0.0333
     11 C           6.5624    2.2813    0.0000 C.3     1  UNL1        0.1258
     12 C           6.2305   -0.2936    0.0000 C.ar    1  UNL1        0.1309
     13 C           8.2944    2.2813    0.0000 C.2     1  UNL1        0.1406
     14 C           9.1884    0.7466    0.0000 C.2     1  UNL1       -0.0382
     15 C           4.7972    0.7374    0.0000 C.ar    1  UNL1       -0.0415
     16 C           5.6356   -1.1411    0.0000 C.ar    1  UNL1        0.0228
     17 C           4.1829   -0.0961    0.0000 C.ar    1  UNL1        0.0171
     18 C           4.6049   -1.0417    0.0000 C.ar    1  UNL1        0.1323
     19 C           9.1884    2.8160    0.0000 C.2     1  UNL1        0.0259
     20 C          10.0944    1.2605    0.0000 C.2     1  UNL1       -0.0155
     21 C           2.9116   -1.8209    0.0000 C.3     1  UNL1        0.1235
     22 C          10.0944    2.3021    0.0000 C.2     1  UNL1        0.1820
     23 C           3.1120    0.0322    0.0000 C.2     1  UNL1       -0.0513
     24 C           2.4721   -0.8360    0.0000 C.2     1  UNL1       -0.0409
     25 C           2.0000   -2.2320    0.0000 C.3     1  UNL1       -0.0215
     26 C           2.8118   -2.8160    0.0000 C.3     1  UNL1       -0.0215
     27 H           7.9295    0.4162    0.0000 H       1  UNL1        0.0804
     28 H           6.3503    2.8639    0.0000 H       1  UNL1        0.0730
     29 H           5.9518    2.1736    0.0000 H       1  UNL1        0.0730
     30 H           9.1812    0.1267    0.0000 H       1  UNL1        0.0607
     31 H           4.5512    1.3065    0.0000 H       1  UNL1        0.0629
     32 H           5.6964    2.4013    0.0000 H       1  UNL1        0.2109
     33 H           5.8948   -1.7043    0.0000 H       1  UNL1        0.0691
     34 H           8.8314   -0.0287    0.0000 H       1  UNL1        0.2113
     35 H           9.1812    3.4359    0.0000 H       1  UNL1        0.0690
     36 H          10.6302    0.9484    0.0000 H       1  UNL1        0.0654
     37 H           2.8659    0.6013    0.0000 H       1  UNL1        0.0623
     38 H           1.8557   -0.7693    0.0000 H       1  UNL1        0.0611
     39 H           1.7452   -1.6668    0.0000 H       1  UNL1        0.0271
     40 H           1.4348   -2.4868    0.0000 H       1  UNL1        0.0271
     41 H           2.2548   -2.7972    0.0000 H       1  UNL1        0.0271
     42 H           2.1949   -2.7540    0.0000 H       1  UNL1        0.0271
     43 H           2.7499   -3.4328    0.0000 H       1  UNL1        0.0271
     44 H           3.4287   -2.8778    0.0000 H       1  UNL1        0.0271
@<TRIPOS>BOND
     1     1     8    1
     2     1    12    1
     3     2    11    1
     4     2    13    1
     5     3     7    1
     6     3    32    1
     7     4     9    1
     8     4    34    1
     9     5    18    1
    10     5    21    1
    11     6    22    2
    12     7     8    1
    13     7    10    1
    14     7    11    1
    15     8     9    1
    16     8    27    1
    17     9    13    1
    18     9    14    1
    19    10    12   ar
    20    10    15   ar
    21    11    28    1
    22    11    29    1
    23    12    16   ar
    24    13    19    2
    25    14    20    2
    26    14    30    1
    27    15    17   ar
    28    15    31    1
    29    16    18   ar
    30    16    33    1
    31    17    18   ar
    32    17    23    1
    33    19    22    1
    34    19    35    1
    35    20    22    1
    36    20    36    1
    37    21    24    1
    38    21    25    1
    39    21    26    1
    40    23    24    2
    41    23    37    1
    42    24    38    1
    43    25    39    1
    44    25    40    1
    45    25    41    1
    46    26    42    1
    47    26    43    1
    48    26    44    1
