@<TRIPOS>MOLECULE
IMPHY006101
 37 39 0 0 0
SMALL
GASTEIGER

@<TRIPOS>ATOM
      1 O           6.4144    1.9377    0.0000 O.3     1  UNL1       -0.4895
      2 O           8.1962    0.9273    0.0000 O.3     1  UNL1       -0.4913
      3 O           6.4144   -2.1315    0.0000 O.3     1  UNL1       -0.5059
      4 O           4.6660   -2.0969    0.0000 O.2     1  UNL1       -0.2864
      5 O           2.9176    1.9377    0.0000 O.3     1  UNL1       -0.5047
      6 N           4.6660    0.9031    0.0000 N.ar    1  UNL1       -0.3369
      7 C           5.5321    0.4031    0.0000 C.ar    1  UNL1        0.1025
      8 C           5.5321   -0.5969    0.0000 C.ar    1  UNL1        0.0909
      9 C           3.8000    0.4031    0.0000 C.ar    1  UNL1        0.0950
     10 C           3.8000   -0.5969    0.0000 C.ar    1  UNL1        0.0495
     11 C           4.6660   -1.0969    0.0000 C.ar    1  UNL1        0.2008
     12 C           6.4260    0.9378    0.0000 C.ar    1  UNL1        0.1859
     13 C           6.4260   -1.1316    0.0000 C.ar    1  UNL1        0.1334
     14 C           2.9061    0.9378    0.0000 C.ar    1  UNL1        0.1409
     15 C           4.6660    1.9031    0.0000 C.3     1  UNL1        0.0126
     16 C           7.3321    0.4239    0.0000 C.ar    1  UNL1        0.1671
     17 C           2.9061   -1.1316    0.0000 C.ar    1  UNL1       -0.0487
     18 C           7.3321   -0.6177    0.0000 C.ar    1  UNL1        0.0260
     19 C           2.0000    0.4239    0.0000 C.ar    1  UNL1       -0.0181
     20 C           2.0000   -0.6177    0.0000 C.ar    1  UNL1       -0.0575
     21 C           7.2746    2.4477    0.0000 C.3     1  UNL1        0.0791
     22 C           9.0641    0.4306    0.0000 C.3     1  UNL1        0.0790
     23 H           5.2860    1.9031    0.0000 H       1  UNL1        0.0456
     24 H           4.6660    2.5231    0.0000 H       1  UNL1        0.0456
     25 H           4.0460    1.9031    0.0000 H       1  UNL1        0.0456
     26 H           2.9132   -1.7515    0.0000 H       1  UNL1        0.0625
     27 H           7.8678   -0.9298    0.0000 H       1  UNL1        0.0692
     28 H           1.4643    0.7360    0.0000 H       1  UNL1        0.0655
     29 H           1.4643   -0.9298    0.0000 H       1  UNL1        0.0619
     30 H           6.9478   -2.4477    0.0000 H       1  UNL1        0.2922
     31 H           2.3843    2.2539    0.0000 H       1  UNL1        0.2922
     32 H           7.5908    1.9144    0.0000 H       1  UNL1        0.0660
     33 H           7.8079    2.7639    0.0000 H       1  UNL1        0.0660
     34 H           6.9584    2.9810    0.0000 H       1  UNL1        0.0660
     35 H           8.7562   -0.1075    0.0000 H       1  UNL1        0.0660
     36 H           9.6022    0.1227    0.0000 H       1  UNL1        0.0660
     37 H           9.3720    0.9687    0.0000 H       1  UNL1        0.0660
@<TRIPOS>BOND
     1     1    12    1
     2     1    21    1
     3     2    16    1
     4     2    22    1
     5     3    13    1
     6     3    30    1
     7     4    11    2
     8     5    14    1
     9     5    31    1
    10     6     7   ar
    11     6     9   ar
    12     6    15    1
    13     7     8   ar
    14     7    12   ar
    15     8    11   ar
    16     8    13   ar
    17     9    10   ar
    18     9    14   ar
    19    10    11   ar
    20    10    17   ar
    21    12    16   ar
    22    13    18   ar
    23    14    19   ar
    24    15    23    1
    25    15    24    1
    26    15    25    1
    27    16    18   ar
    28    17    20   ar
    29    17    26    1
    30    18    27    1
    31    19    20   ar
    32    19    28    1
    33    20    29    1
    34    21    32    1
    35    21    33    1
    36    21    34    1
    37    22    35    1
    38    22    36    1
    39    22    37    1
