@<TRIPOS>MOLECULE
IMPHY017356
 15 14 0 0 0
SMALL
GASTEIGER

@<TRIPOS>ATOM
      1 O           6.8671    0.2500    0.0000 O.3     1  UNL1       -0.3705
      2 O           2.5369   -0.2500    0.0000 O.3     1  UNL1       -0.3825
      3 C           6.0010    0.7500    0.0000 C.3     1  UNL1        0.1080
      4 C           7.7331    0.7500    0.0000 C.3     1  UNL1        0.0377
      5 C           3.4030   -0.7500    0.0000 C.3     1  UNL1        0.1049
      6 C           5.1350    0.2500    0.0000 C.1     1  UNL1       -0.0717
      7 C           4.2690   -0.2500    0.0000 C.1     1  UNL1       -0.0720
      8 H           6.3996    1.2250    0.0000 H       1  UNL1        0.0697
      9 H           5.6025    1.2250    0.0000 H       1  UNL1        0.0697
     10 H           3.0044   -1.2250    0.0000 H       1  UNL1        0.0694
     11 H           3.8015   -1.2250    0.0000 H       1  UNL1        0.0694
     12 H           8.0431    0.2131    0.0000 H       1  UNL1        0.0524
     13 H           8.2700    1.0600    0.0000 H       1  UNL1        0.0524
     14 H           7.4231    1.2869    0.0000 H       1  UNL1        0.0524
     15 H           2.0000   -0.5600    0.0000 H       1  UNL1        0.2107
@<TRIPOS>BOND
     1     1     3    1
     2     1     4    1
     3     2     5    1
     4     2    15    1
     5     3     6    1
     6     3     8    1
     7     3     9    1
     8     4    12    1
     9     4    13    1
    10     4    14    1
    11     5     7    1
    12     5    10    1
    13     5    11    1
    14     6     7    3
