@<TRIPOS>MOLECULE
IMPHY001061
 52 53 0 0 0
SMALL
GASTEIGER

@<TRIPOS>ATOM
      1 O           8.9962    0.6342    0.0000 O.3     1  UNL1       -0.4605
      2 O           4.5981    0.1550    0.0000 O.3     1  UNL1       -0.4573
      3 O           6.3301    3.1550    0.0000 O.3     1  UNL1       -0.3904
      4 O           9.8602    2.1792    0.0000 O.2     1  UNL1       -0.2453
      5 O           2.8660    2.1550    0.0000 O.3     1  UNL1       -0.4647
      6 O           3.7320    0.6550    0.0000 O.2     1  UNL1       -0.2453
      7 O           5.4641   -1.3450    0.0000 O.2     1  UNL1       -0.2452
      8 O           2.8660   -2.8450    0.0000 O.3     1  UNL1       -0.3902
      9 C           7.1962    0.6550    0.0000 C.3     1  UNL1        0.0354
     10 C           7.1962    1.6550    0.0000 C.3     1  UNL1        0.0293
     11 C           6.3301    2.1550    0.0000 C.3     1  UNL1        0.0735
     12 C           6.3301    0.1550    0.0000 C.3     1  UNL1       -0.0021
     13 C           5.4641    1.6550    0.0000 C.3     1  UNL1        0.0540
     14 C           5.4641    0.6550    0.0000 C.3     1  UNL1        0.1136
     15 C           8.0901    0.1203    0.0000 C.3     1  UNL1        0.1025
     16 C           8.0901    2.1897    0.0000 C.2     1  UNL1        0.0360
     17 C           7.1962   -0.3450    0.0000 C.2     1  UNL1       -0.0810
     18 C           4.5981    2.1550    0.0000 C.2     1  UNL1        0.0385
     19 C           8.9962    1.6758    0.0000 C.2     1  UNL1        0.3350
     20 C           8.0785    3.1896    0.0000 C.2     1  UNL1       -0.0883
     21 C           8.0622   -0.8450    0.0000 C.2     1  UNL1       -0.1020
     22 C           3.7320    1.6550    0.0000 C.2     1  UNL1        0.3348
     23 C           4.5981    3.1550    0.0000 C.2     1  UNL1       -0.0882
     24 C           4.5981   -0.8450    0.0000 C.2     1  UNL1        0.3371
     25 C           3.7320   -1.3450    0.0000 C.2     1  UNL1        0.0546
     26 C           3.7320   -2.3450    0.0000 C.3     1  UNL1        0.0754
     27 C           2.0000    1.6550    0.0000 C.3     1  UNL1        0.0820
     28 C           2.8660   -0.8450    0.0000 C.2     1  UNL1       -0.0865
     29 H           7.1896    2.5050    0.0000 H       1  UNL1        0.0386
     30 H           5.7932    2.4650    0.0000 H       1  UNL1        0.0607
     31 H           5.9316   -0.3199    0.0000 H       1  UNL1        0.0311
     32 H           6.7287   -0.3199    0.0000 H       1  UNL1        0.0311
     33 H           6.0262    2.2750    0.0000 H       1  UNL1        0.0412
     34 H           5.4641    0.0350    0.0000 H       1  UNL1        0.0741
     35 H           7.6855   -0.3494    0.0000 H       1  UNL1        0.0706
     36 H           8.4837   -0.3587    0.0000 H       1  UNL1        0.0706
     37 H           6.6592   -0.6550    0.0000 H       1  UNL1        0.0573
     38 H           5.7932    3.4650    0.0000 H       1  UNL1        0.2098
     39 H           8.6118    3.5058    0.0000 H       1  UNL1        0.0540
     40 H           7.5380    3.4934    0.0000 H       1  UNL1        0.0540
     41 H           8.0622   -1.4650    0.0000 H       1  UNL1        0.0532
     42 H           8.5991   -0.5350    0.0000 H       1  UNL1        0.0532
     43 H           5.1350    3.4650    0.0000 H       1  UNL1        0.0540
     44 H           4.0611    3.4650    0.0000 H       1  UNL1        0.0540
     45 H           3.9441   -2.9276    0.0000 H       1  UNL1        0.0609
     46 H           4.3426   -2.2373    0.0000 H       1  UNL1        0.0609
     47 H           1.6900    2.1919    0.0000 H       1  UNL1        0.0661
     48 H           1.4631    1.3450    0.0000 H       1  UNL1        0.0661
     49 H           2.3100    1.1181    0.0000 H       1  UNL1        0.0661
     50 H           2.8660   -0.2250    0.0000 H       1  UNL1        0.0540
     51 H           2.3291   -1.1550    0.0000 H       1  UNL1        0.0540
     52 H           2.8660   -3.4650    0.0000 H       1  UNL1        0.2099
@<TRIPOS>BOND
     1     1    15    1
     2     1    19    1
     3    14     2    1
     4     2    24    1
     5    11     3    1
     6     3    38    1
     7     4    19    2
     8     5    22    1
     9     5    27    1
    10     6    22    2
    11     7    24    2
    12     8    26    1
    13     8    52    1
    14     9    10    1
    15     9    12    1
    16     9    15    1
    17     9    17    1
    18    10    11    1
    19    10    16    1
    20    10    29    1
    21    11    13    1
    22    11    30    1
    23    12    14    1
    24    12    31    1
    25    12    32    1
    26    13    14    1
    27    13    18    1
    28    13    33    1
    29    14    34    1
    30    15    35    1
    31    15    36    1
    32    16    19    1
    33    16    20    2
    34    17    21    2
    35    17    37    1
    36    18    22    1
    37    18    23    2
    38    20    39    1
    39    20    40    1
    40    21    41    1
    41    21    42    1
    42    23    43    1
    43    23    44    1
    44    24    25    1
    45    25    26    1
    46    25    28    2
    47    26    45    1
    48    26    46    1
    49    27    47    1
    50    27    48    1
    51    27    49    1
    52    28    50    1
    53    28    51    1
