@<TRIPOS>MOLECULE
IMPHY006844
 29 30 0 0 0
SMALL
GASTEIGER

@<TRIPOS>ATOM
      1 O           7.9244    1.0366    0.0000 O.2     1  UNL1       -0.2761
      2 N           4.6783   -2.1421    0.0000 N.ar    1  UNL1       -0.3604
      3 N           6.2781    1.5747    0.0000 N.am    1  UNL1       -0.3152
      4 C           4.6783   -0.5326    0.0000 C.ar    1  UNL1       -0.0209
      5 C           4.9889    0.4179    0.0000 C.3     1  UNL1       -0.0101
      6 C           3.7320   -0.8373    0.0000 C.ar    1  UNL1        0.0029
      7 C           3.7320   -1.8373    0.0000 C.ar    1  UNL1        0.0467
      8 C           5.9674    0.6241    0.0000 C.3     1  UNL1        0.0156
      9 C           5.2619   -1.3373    0.0000 C.ar    1  UNL1        0.0060
     10 C           2.8660   -0.3373    0.0000 C.ar    1  UNL1       -0.0523
     11 C           2.8660   -2.3373    0.0000 C.ar    1  UNL1       -0.0378
     12 C           2.0000   -0.8373    0.0000 C.ar    1  UNL1       -0.0611
     13 C           2.0000   -1.8373    0.0000 C.ar    1  UNL1       -0.0598
     14 C           7.2566    1.7809    0.0000 C.2     1  UNL1        0.2099
     15 C           7.5673    2.7314    0.0000 C.3     1  UNL1        0.0121
     16 H           4.9684    1.0376    0.0000 H       1  UNL1        0.0329
     17 H           4.3751    0.5053    0.0000 H       1  UNL1        0.0329
     18 H           5.9880    0.0045    0.0000 H       1  UNL1        0.0465
     19 H           6.5812    0.5368    0.0000 H       1  UNL1        0.0465
     20 H           5.8819   -1.3373    0.0000 H       1  UNL1        0.0810
     21 H           4.8709   -2.7314    0.0000 H       1  UNL1        0.1653
     22 H           2.8660    0.2827    0.0000 H       1  UNL1        0.0624
     23 H           2.8660   -2.9573    0.0000 H       1  UNL1        0.0638
     24 H           5.8640    2.0361    0.0000 H       1  UNL1        0.1487
     25 H           1.4631   -0.5273    0.0000 H       1  UNL1        0.0618
     26 H           1.4631   -2.1473    0.0000 H       1  UNL1        0.0618
     27 H           8.1566    2.5388    0.0000 H       1  UNL1        0.0322
     28 H           7.7599    3.3207    0.0000 H       1  UNL1        0.0322
     29 H           6.9780    2.9240    0.0000 H       1  UNL1        0.0322
@<TRIPOS>BOND
     1     1    14    2
     2     2     7   ar
     3     2     9   ar
     4     2    21    1
     5     3     8    1
     6     3    14   am
     7     3    24    1
     8     4     5    1
     9     4     6   ar
    10     4     9   ar
    11     5     8    1
    12     5    16    1
    13     5    17    1
    14     6     7   ar
    15     6    10   ar
    16     7    11   ar
    17     8    18    1
    18     8    19    1
    19     9    20    1
    20    10    12   ar
    21    10    22    1
    22    11    13   ar
    23    11    23    1
    24    12    13   ar
    25    12    25    1
    26    13    26    1
    27    14    15    1
    28    15    27    1
    29    15    28    1
    30    15    29    1
