@<TRIPOS>MOLECULE
IMPHY003509
 31 35 0 0 0
SMALL
GASTEIGER

@<TRIPOS>ATOM
      1 O           3.4519   -2.7090    0.0000 O.3     1  UNL1       -0.4526
      2 O           2.0000   -1.8708    0.0000 O.3     1  UNL1       -0.4526
      3 O           2.8197    1.8725    0.0000 O.2     1  UNL1       -0.2670
      4 N           4.5518    1.8725    0.0000 N.ar    1  UNL1       -0.3070
      5 C           5.4178    1.3725    0.0000 C.ar    1  UNL1        0.0558
      6 C           4.9169    2.7968    0.0000 C.3     1  UNL1        0.0308
      7 C           5.9105    2.8164    0.0000 C.3     1  UNL1       -0.0076
      8 C           6.3117    1.9072    0.0000 C.ar    1  UNL1       -0.0215
      9 C           5.4178    0.3725    0.0000 C.ar    1  UNL1        0.0068
     10 C           4.5518   -0.1275    0.0000 C.ar    1  UNL1        0.0001
     11 C           3.6857    0.3725    0.0000 C.ar    1  UNL1        0.0509
     12 C           3.6857    1.3725    0.0000 C.ar    1  UNL1        0.2596
     13 C           7.2178    1.3933    0.0000 C.ar    1  UNL1       -0.0565
     14 C           6.3117   -0.1622    0.0000 C.ar    1  UNL1       -0.0520
     15 C           4.5678   -1.1690    0.0000 C.ar    1  UNL1       -0.0076
     16 C           2.7757   -0.1344    0.0000 C.ar    1  UNL1       -0.0032
     17 C           7.2178    0.3517    0.0000 C.ar    1  UNL1       -0.0608
     18 C           3.6698   -1.6968    0.0000 C.ar    1  UNL1        0.1668
     19 C           2.7677   -1.1760    0.0000 C.ar    1  UNL1        0.1670
     20 C           2.4220   -2.8164    0.0000 C.3     1  UNL1        0.2332
     21 H           4.9863    3.4129    0.0000 H       1  UNL1        0.0496
     22 H           4.3153    2.9467    0.0000 H       1  UNL1        0.0496
     23 H           6.5057    2.9899    0.0000 H       1  UNL1        0.0331
     24 H           5.8168    3.4293    0.0000 H       1  UNL1        0.0331
     25 H           7.7535    1.7054    0.0000 H       1  UNL1        0.0621
     26 H           6.3046   -0.7821    0.0000 H       1  UNL1        0.0624
     27 H           5.1083   -1.4728    0.0000 H       1  UNL1        0.0662
     28 H           2.2424    0.1818    0.0000 H       1  UNL1        0.0663
     29 H           7.7535    0.0396    0.0000 H       1  UNL1        0.0618
     30 H           1.8324   -3.0081    0.0000 H       1  UNL1        0.1166
     31 H           2.5507   -3.4229    0.0000 H       1  UNL1        0.1166
@<TRIPOS>BOND
     1     1    18    1
     2     1    20    1
     3     2    19    1
     4     2    20    1
     5     3    12    2
     6     4     5   ar
     7     4     6    1
     8     4    12   ar
     9     5     8   ar
    10     5     9   ar
    11     6     7    1
    12     6    21    1
    13     6    22    1
    14     7     8    1
    15     7    23    1
    16     7    24    1
    17     8    13   ar
    18     9    10   ar
    19     9    14   ar
    20    10    11   ar
    21    10    15   ar
    22    11    12   ar
    23    11    16   ar
    24    13    17   ar
    25    13    25    1
    26    14    17   ar
    27    14    26    1
    28    15    18   ar
    29    15    27    1
    30    16    19   ar
    31    16    28    1
    32    17    29    1
    33    18    19   ar
    34    20    30    1
    35    20    31    1
