@<TRIPOS>MOLECULE
IMPHY011558
 30 31 0 0 0
SMALL
GASTEIGER

@<TRIPOS>ATOM
      1 O           7.2764    0.8047    0.0000 O.3     1  UNL1       -0.4488
      2 O           7.2764   -0.8047    0.0000 O.3     1  UNL1       -0.4488
      3 O           5.4641    2.0000    0.0000 O.3     1  UNL1       -0.4910
      4 O           5.4641   -2.0000    0.0000 O.3     1  UNL1       -0.4913
      5 C           4.5981    0.5000    0.0000 C.ar    1  UNL1        0.0053
      6 C           6.3301    0.5000    0.0000 C.ar    1  UNL1        0.2115
      7 C           6.3301   -0.5000    0.0000 C.ar    1  UNL1        0.2112
      8 C           5.4641    1.0000    0.0000 C.ar    1  UNL1        0.1690
      9 C           5.4641   -1.0000    0.0000 C.ar    1  UNL1        0.1658
     10 C           4.5981   -0.5000    0.0000 C.ar    1  UNL1       -0.0091
     11 C           3.7320    1.0000    0.0000 C.3     1  UNL1       -0.0060
     12 C           7.8600    0.0000    0.0000 C.3     1  UNL1        0.2336
     13 C           2.8660    0.5000    0.0000 C.2     1  UNL1       -0.0867
     14 C           4.5981    2.5000    0.0000 C.3     1  UNL1        0.0790
     15 C           4.5981   -2.5000    0.0000 C.3     1  UNL1        0.0790
     16 C           2.0000    1.0000    0.0000 C.2     1  UNL1       -0.1023
     17 H           4.0611   -0.8100    0.0000 H       1  UNL1        0.0659
     18 H           4.1306    1.4750    0.0000 H       1  UNL1        0.0357
     19 H           3.3335    1.4750    0.0000 H       1  UNL1        0.0357
     20 H           8.3208   -0.4147    0.0000 H       1  UNL1        0.1166
     21 H           8.3208    0.4147    0.0000 H       1  UNL1        0.1166
     22 H           2.8660   -0.1200    0.0000 H       1  UNL1        0.0570
     23 H           4.9081    3.0369    0.0000 H       1  UNL1        0.0660
     24 H           4.0611    2.8100    0.0000 H       1  UNL1        0.0660
     25 H           4.2881    1.9631    0.0000 H       1  UNL1        0.0660
     26 H           4.2881   -1.9631    0.0000 H       1  UNL1        0.0660
     27 H           4.0611   -2.8100    0.0000 H       1  UNL1        0.0660
     28 H           4.9081   -3.0369    0.0000 H       1  UNL1        0.0660
     29 H           2.0000    1.6200    0.0000 H       1  UNL1        0.0532
     30 H           1.4631    0.6900    0.0000 H       1  UNL1        0.0532
@<TRIPOS>BOND
     1     1     6    1
     2     1    12    1
     3     2     7    1
     4     2    12    1
     5     3     8    1
     6     3    14    1
     7     4     9    1
     8     4    15    1
     9     5     8   ar
    10     5    10   ar
    11     5    11    1
    12     6     7   ar
    13     6     8   ar
    14     7     9   ar
    15     9    10   ar
    16    10    17    1
    17    11    13    1
    18    11    18    1
    19    11    19    1
    20    12    20    1
    21    12    21    1
    22    13    16    2
    23    13    22    1
    24    14    23    1
    25    14    24    1
    26    14    25    1
    27    15    26    1
    28    15    27    1
    29    15    28    1
    30    16    29    1
    31    16    30    1
