@<TRIPOS>MOLECULE
IMPHY001993
 28 29 0 0 0
SMALL
GASTEIGER

@<TRIPOS>ATOM
      1 C           2.8660    0.5000    0.0000 C.3     1  UNL1        0.0064
      2 C           2.8660   -0.5000    0.0000 C.ar    1  UNL1       -0.0402
      3 C           3.7320    1.0000    0.0000 C.ar    1  UNL1       -0.0402
      4 C           2.0000    1.0000    0.0000 C.3     1  UNL1       -0.0544
      5 C           2.0000   -1.0000    0.0000 C.ar    1  UNL1       -0.0580
      6 C           4.5981    0.5000    0.0000 C.ar    1  UNL1       -0.0580
      7 C           3.7320   -1.0000    0.0000 C.ar    1  UNL1       -0.0580
      8 C           3.7320    2.0000    0.0000 C.ar    1  UNL1       -0.0580
      9 C           2.0000   -2.0000    0.0000 C.ar    1  UNL1       -0.0615
     10 C           5.4641    1.0000    0.0000 C.ar    1  UNL1       -0.0615
     11 C           3.7320   -2.0000    0.0000 C.ar    1  UNL1       -0.0615
     12 C           4.5981    2.5000    0.0000 C.ar    1  UNL1       -0.0615
     13 C           2.8660   -2.5000    0.0000 C.ar    1  UNL1       -0.0617
     14 C           5.4641    2.0000    0.0000 C.ar    1  UNL1       -0.0617
     15 H           2.8660    1.1200    0.0000 H       1  UNL1        0.0394
     16 H           2.3100    1.5369    0.0000 H       1  UNL1        0.0239
     17 H           1.4631    1.3100    0.0000 H       1  UNL1        0.0239
     18 H           1.6900    0.4631    0.0000 H       1  UNL1        0.0239
     19 H           1.4631   -0.6900    0.0000 H       1  UNL1        0.0620
     20 H           4.5981   -0.1200    0.0000 H       1  UNL1        0.0620
     21 H           4.2690   -0.6900    0.0000 H       1  UNL1        0.0620
     22 H           3.1951    2.3100    0.0000 H       1  UNL1        0.0620
     23 H           1.4631   -2.3100    0.0000 H       1  UNL1        0.0618
     24 H           6.0010    0.6900    0.0000 H       1  UNL1        0.0618
     25 H           4.2690   -2.3100    0.0000 H       1  UNL1        0.0618
     26 H           4.5981    3.1200    0.0000 H       1  UNL1        0.0618
     27 H           2.8660   -3.1200    0.0000 H       1  UNL1        0.0618
     28 H           6.0010    2.3100    0.0000 H       1  UNL1        0.0618
@<TRIPOS>BOND
     1     1     2    1
     2     1     3    1
     3     1     4    1
     4     1    15    1
     5     2     5   ar
     6     2     7   ar
     7     3     6   ar
     8     3     8   ar
     9     4    16    1
    10     4    17    1
    11     4    18    1
    12     5     9   ar
    13     5    19    1
    14     6    10   ar
    15     6    20    1
    16     7    11   ar
    17     7    21    1
    18     8    12   ar
    19     8    22    1
    20     9    13   ar
    21     9    23    1
    22    10    14   ar
    23    10    24    1
    24    11    13   ar
    25    11    25    1
    26    12    14   ar
    27    12    26    1
    28    13    27    1
    29    14    28    1
