@<TRIPOS>MOLECULE
IMPHY012602
 40 43 0 0 0
SMALL
GASTEIGER

@<TRIPOS>ATOM
      1 O           2.0000   -1.3990    0.0000 O.3     1  UNL1       -0.3642
      2 C           3.7323    0.6014    0.0000 C.3     1  UNL1       -0.0239
      3 C           3.7323   -0.3986    0.0000 C.3     1  UNL1        0.0056
      4 C           2.8663    1.1014    0.0000 C.3     1  UNL1       -0.0292
      5 C           3.7326    1.6018    0.0000 C.3     1  UNL1       -0.0280
      6 C           2.8663   -0.8986    0.0000 C.3     1  UNL1        0.1018
      7 C           2.0003   -0.3986    0.0000 C.3     1  UNL1        0.0892
      8 C           2.0003    0.6014    0.0000 C.3     1  UNL1       -0.0202
      9 C           4.6423   -0.9054    0.0000 C.3     1  UNL1       -0.0355
     10 C           2.8502   -1.9401    0.0000 C.3     1  UNL1       -0.0207
     11 C           4.5983    0.1014    0.0000 C.3     1  UNL1       -0.0563
     12 C           3.2326    2.4679    0.0000 C.3     1  UNL1       -0.0593
     13 C           4.7326    1.6018    0.0000 C.3     1  UNL1       -0.0593
     14 C           4.6503   -1.9470    0.0000 C.3     1  UNL1       -0.0498
     15 C           3.7483   -2.4679    0.0000 C.3     1  UNL1       -0.0501
     16 C           5.5025   -0.3955    0.0000 C.3     1  UNL1       -0.0618
     17 H           4.3523    0.6013    0.0000 H       1  UNL1        0.0315
     18 H           2.5562    1.6383    0.0000 H       1  UNL1        0.0310
     19 H           1.3803   -0.3985    0.0000 H       1  UNL1        0.0625
     20 H           1.7882    1.1840    0.0000 H       1  UNL1        0.0294
     21 H           1.3897    0.4937    0.0000 H       1  UNL1        0.0294
     22 H           5.1822   -1.2103    0.0000 H       1  UNL1        0.0304
     23 H           2.2411   -1.8246    0.0000 H       1  UNL1        0.0294
     24 H           2.6322   -2.5205    0.0000 H       1  UNL1        0.0294
     25 H           4.9083   -0.4355    0.0000 H       1  UNL1        0.0236
     26 H           5.1353    0.4114    0.0000 H       1  UNL1        0.0236
     27 H           4.2883    0.6383    0.0000 H       1  UNL1        0.0236
     28 H           3.7695    2.7779    0.0000 H       1  UNL1        0.0235
     29 H           2.9226    3.0048    0.0000 H       1  UNL1        0.0235
     30 H           2.6956    2.1579    0.0000 H       1  UNL1        0.0235
     31 H           4.7326    0.9818    0.0000 H       1  UNL1        0.0235
     32 H           5.3526    1.6018    0.0000 H       1  UNL1        0.0235
     33 H           4.7326    2.2218    0.0000 H       1  UNL1        0.0235
     34 H           4.8639   -2.5291    0.0000 H       1  UNL1        0.0268
     35 H           5.2604   -1.8362    0.0000 H       1  UNL1        0.0268
     36 H           3.3473   -2.9408    0.0000 H       1  UNL1        0.0266
     37 H           4.1456   -2.9438    0.0000 H       1  UNL1        0.0266
     38 H           5.8187   -0.9288    0.0000 H       1  UNL1        0.0233
     39 H           6.0358   -0.0793    0.0000 H       1  UNL1        0.0233
     40 H           5.1863    0.1378    0.0000 H       1  UNL1        0.0233
@<TRIPOS>BOND
     1     1     6    1
     2     1     7    1
     3     2     3    1
     4     2     4    1
     5     2     5    1
     6     2    17    1
     7     3     6    1
     8     3     9    1
     9     3    11    1
    10     4     5    1
    11     4     8    1
    12     4    18    1
    13     5    12    1
    14     5    13    1
    15     6     7    1
    16     6    10    1
    17     7     8    1
    18     7    19    1
    19     8    20    1
    20     8    21    1
    21     9    14    1
    22     9    16    1
    23     9    22    1
    24    10    15    1
    25    10    23    1
    26    10    24    1
    27    11    25    1
    28    11    26    1
    29    11    27    1
    30    12    28    1
    31    12    29    1
    32    12    30    1
    33    13    31    1
    34    13    32    1
    35    13    33    1
    36    14    15    1
    37    14    34    1
    38    14    35    1
    39    15    36    1
    40    15    37    1
    41    16    38    1
    42    16    39    1
    43    16    40    1
