@<TRIPOS>MOLECULE
IMPHY005135
 26 26 0 0 0
SMALL
GASTEIGER

@<TRIPOS>ATOM
      1 O           2.8660    1.0950    0.0000 O.3     1  UNL1       -0.4913
      2 O           6.3301    1.0950    0.0000 O.3     1  UNL1       -0.4913
      3 O           4.5981    2.0950    0.0000 O.3     1  UNL1       -0.5009
      4 O           5.4641   -2.4050    0.0000 O.2     1  UNL1       -0.2924
      5 C           4.5981   -0.9050    0.0000 C.ar    1  UNL1        0.0243
      6 C           3.7320    0.5950    0.0000 C.ar    1  UNL1        0.1656
      7 C           5.4641    0.5950    0.0000 C.ar    1  UNL1        0.1656
      8 C           5.4641   -0.4050    0.0000 C.ar    1  UNL1       -0.0056
      9 C           3.7320   -0.4050    0.0000 C.ar    1  UNL1       -0.0056
     10 C           4.5981    1.0950    0.0000 C.ar    1  UNL1        0.2010
     11 C           4.5981   -1.9050    0.0000 C.2     1  UNL1        0.1603
     12 C           3.7320   -2.4050    0.0000 C.3     1  UNL1       -0.0014
     13 C           2.0000    0.5950    0.0000 C.3     1  UNL1        0.0790
     14 C           7.1962    0.5950    0.0000 C.3     1  UNL1        0.0790
     15 H           6.0010   -0.7150    0.0000 H       1  UNL1        0.0662
     16 H           3.1951   -0.7150    0.0000 H       1  UNL1        0.0662
     17 H           3.4220   -1.8681    0.0000 H       1  UNL1        0.0309
     18 H           3.1951   -2.7150    0.0000 H       1  UNL1        0.0309
     19 H           4.0420   -2.9419    0.0000 H       1  UNL1        0.0309
     20 H           5.1350    2.4050    0.0000 H       1  UNL1        0.2924
     21 H           1.6900    1.1319    0.0000 H       1  UNL1        0.0660
     22 H           1.4631    0.2850    0.0000 H       1  UNL1        0.0660
     23 H           2.3100    0.0581    0.0000 H       1  UNL1        0.0660
     24 H           6.8862    0.0581    0.0000 H       1  UNL1        0.0660
     25 H           7.7331    0.2850    0.0000 H       1  UNL1        0.0660
     26 H           7.5062    1.1319    0.0000 H       1  UNL1        0.0660
@<TRIPOS>BOND
     1     1     6    1
     2     1    13    1
     3     2     7    1
     4     2    14    1
     5     3    10    1
     6     3    20    1
     7     4    11    2
     8     5     8   ar
     9     5     9   ar
    10     5    11    1
    11     6     9   ar
    12     6    10   ar
    13     7     8   ar
    14     7    10   ar
    15     8    15    1
    16     9    16    1
    17    11    12    1
    18    12    17    1
    19    12    18    1
    20    12    19    1
    21    13    21    1
    22    13    22    1
    23    13    23    1
    24    14    24    1
    25    14    25    1
    26    14    26    1
