@<TRIPOS>MOLECULE
IMPHY002556
 42 43 0 0 0
SMALL
GASTEIGER

@<TRIPOS>ATOM
      1 O           3.5000    0.3995    0.0000 O.3     1  UNL1       -0.4581
      2 O           4.7588   -0.5664    0.0000 O.2     1  UNL1       -0.2448
      3 O           4.4782    2.4310    0.0000 O.3     1  UNL1       -0.5058
      4 O           8.0180    2.4446    0.0000 O.3     1  UNL1       -0.5066
      5 C           3.5000   -3.0646    0.0000 C.3     1  UNL1       -0.0529
      6 C           4.5000   -3.0646    0.0000 C.3     1  UNL1       -0.0530
      7 C           3.0000   -2.1986    0.0000 C.3     1  UNL1       -0.0497
      8 C           5.0000   -2.1986    0.0000 C.3     1  UNL1       -0.0528
      9 C           3.5000   -1.3325    0.0000 C.3     1  UNL1       -0.0159
     10 C           5.8660   -1.6986    0.0000 C.3     1  UNL1       -0.0490
     11 C           3.0000   -0.4665    0.0000 C.3     1  UNL1        0.1006
     12 C           6.2320   -0.6005    0.0000 C.3     1  UNL1       -0.0267
     13 C           6.2320    0.3995    0.0000 C.ar    1  UNL1       -0.0264
     14 C           5.3660    0.8995    0.0000 C.ar    1  UNL1        0.1036
     15 C           2.0000   -0.4665    0.0000 C.3     1  UNL1       -0.0277
     16 C           4.5000    0.3995    0.0000 C.2     1  UNL1        0.3433
     17 C           7.1420    0.9063    0.0000 C.ar    1  UNL1       -0.0160
     18 C           5.3500    1.9410    0.0000 C.ar    1  UNL1        0.1345
     19 C           7.1501    1.9480    0.0000 C.ar    1  UNL1        0.1206
     20 C           6.2480    2.4688    0.0000 C.ar    1  UNL1        0.0221
     21 H           2.9174   -3.2766    0.0000 H       1  UNL1        0.0265
     22 H           3.6077   -3.6752    0.0000 H       1  UNL1        0.0265
     23 H           4.3923   -3.6752    0.0000 H       1  UNL1        0.0265
     24 H           5.0826   -3.2766    0.0000 H       1  UNL1        0.0265
     25 H           2.5250   -1.8000    0.0000 H       1  UNL1        0.0266
     26 H           2.5250   -2.5971    0.0000 H       1  UNL1        0.0266
     27 H           4.8923   -1.5880    0.0000 H       1  UNL1        0.0265
     28 H           5.4384   -2.6370    0.0000 H       1  UNL1        0.0265
     29 H           3.9750   -1.7311    0.0000 H       1  UNL1        0.0301
     30 H           3.9750   -0.9340    0.0000 H       1  UNL1        0.0301
     31 H           6.0145   -2.3005    0.0000 H       1  UNL1        0.0268
     32 H           6.4855   -1.7234    0.0000 H       1  UNL1        0.0268
     33 H           2.6900    0.0704    0.0000 H       1  UNL1        0.0731
     34 H           6.6907   -1.0177    0.0000 H       1  UNL1        0.0313
     35 H           5.6201   -0.5012    0.0000 H       1  UNL1        0.0313
     36 H           2.0000    0.1535    0.0000 H       1  UNL1        0.0265
     37 H           1.3800   -0.4665    0.0000 H       1  UNL1        0.0265
     38 H           2.0000   -1.0865    0.0000 H       1  UNL1        0.0265
     39 H           7.6754    0.5902    0.0000 H       1  UNL1        0.0657
     40 H           6.2456    3.0888    0.0000 H       1  UNL1        0.0691
     41 H           4.4710    3.0509    0.0000 H       1  UNL1        0.2922
     42 H           8.0204    3.0646    0.0000 H       1  UNL1        0.2921
@<TRIPOS>BOND
     1     1    11    1
     2     1    16    1
     3     2    16    2
     4     3    18    1
     5     3    41    1
     6     4    19    1
     7     4    42    1
     8     5     6    1
     9     5     7    1
    10     5    21    1
    11     5    22    1
    12     6     8    1
    13     6    23    1
    14     6    24    1
    15     7     9    1
    16     7    25    1
    17     7    26    1
    18     8    10    1
    19     8    27    1
    20     8    28    1
    21     9    11    1
    22     9    29    1
    23     9    30    1
    24    10    12    1
    25    10    31    1
    26    10    32    1
    27    11    15    1
    28    11    33    1
    29    12    13    1
    30    12    34    1
    31    12    35    1
    32    13    14   ar
    33    13    17   ar
    34    14    16    1
    35    14    18   ar
    36    15    36    1
    37    15    37    1
    38    15    38    1
    39    17    19   ar
    40    17    39    1
    41    18    20   ar
    42    19    20   ar
    43    20    40    1
