@<TRIPOS>MOLECULE
IMPHY017047
 30 30 0 0 0
SMALL
GASTEIGER

@<TRIPOS>ATOM
      1 O           5.4641    1.5950    0.0000 O.3     1  UNL1       -0.4914
      2 O           3.7320    2.5950    0.0000 O.3     1  UNL1       -0.5031
      3 C           2.8660    0.0950    0.0000 C.ar    1  UNL1       -0.0404
      4 C           3.7320   -0.4050    0.0000 C.ar    1  UNL1       -0.0368
      5 C           2.8660    1.0950    0.0000 C.ar    1  UNL1       -0.0022
      6 C           3.7320   -1.4050    0.0000 C.3     1  UNL1       -0.0094
      7 C           4.5981    0.0950    0.0000 C.ar    1  UNL1       -0.0126
      8 C           3.7320    1.5950    0.0000 C.ar    1  UNL1        0.1617
      9 C           4.5981    1.0950    0.0000 C.ar    1  UNL1        0.1618
     10 C           2.0000   -0.4050    0.0000 C.3     1  UNL1       -0.0391
     11 C           2.0000    1.5950    0.0000 C.3     1  UNL1       -0.0359
     12 C           4.5981   -1.9050    0.0000 C.2     1  UNL1       -0.0868
     13 C           6.3301    1.0950    0.0000 C.3     1  UNL1        0.0790
     14 C           4.5981   -2.9050    0.0000 C.2     1  UNL1       -0.1023
     15 H           3.1215   -1.2973    0.0000 H       1  UNL1        0.0356
     16 H           3.5200   -1.9876    0.0000 H       1  UNL1        0.0356
     17 H           5.1350   -0.2150    0.0000 H       1  UNL1        0.0658
     18 H           1.6900    0.1319    0.0000 H       1  UNL1        0.0278
     19 H           1.4631   -0.7150    0.0000 H       1  UNL1        0.0278
     20 H           2.3100   -0.9419    0.0000 H       1  UNL1        0.0278
     21 H           2.3100    2.1319    0.0000 H       1  UNL1        0.0279
     22 H           1.4631    1.9050    0.0000 H       1  UNL1        0.0279
     23 H           1.6900    1.0581    0.0000 H       1  UNL1        0.0279
     24 H           5.1350   -1.5950    0.0000 H       1  UNL1        0.0570
     25 H           4.2690    2.9050    0.0000 H       1  UNL1        0.2923
     26 H           6.0201    0.5581    0.0000 H       1  UNL1        0.0660
     27 H           6.8671    0.7850    0.0000 H       1  UNL1        0.0660
     28 H           6.6401    1.6319    0.0000 H       1  UNL1        0.0660
     29 H           4.0611   -3.2150    0.0000 H       1  UNL1        0.0532
     30 H           5.1350   -3.2150    0.0000 H       1  UNL1        0.0532
@<TRIPOS>BOND
     1     1     9    1
     2     1    13    1
     3     2     8    1
     4     2    25    1
     5     3     4   ar
     6     3     5   ar
     7     3    10    1
     8     4     6    1
     9     4     7   ar
    10     5     8   ar
    11     5    11    1
    12     6    12    1
    13     6    15    1
    14     6    16    1
    15     7     9   ar
    16     7    17    1
    17     8     9   ar
    18    10    18    1
    19    10    19    1
    20    10    20    1
    21    11    21    1
    22    11    22    1
    23    11    23    1
    24    12    14    2
    25    12    24    1
    26    13    26    1
    27    13    27    1
    28    13    28    1
    29    14    29    1
    30    14    30    1
