@<TRIPOS>MOLECULE
IMPHY014097
 32 34 0 0 0
SMALL
GASTEIGER

@<TRIPOS>ATOM
      1 O           8.1962   -1.1995    0.0000 O.3     1  UNL1       -0.4949
      2 O           4.6660    1.8246    0.0000 O.2     1  UNL1       -0.2864
      3 O           6.4144    1.8592    0.0000 O.3     1  UNL1       -0.5059
      4 N           4.6660   -1.1754    0.0000 N.ar    1  UNL1       -0.3426
      5 C           5.5321   -0.6754    0.0000 C.ar    1  UNL1        0.0600
      6 C           3.8000   -0.6754    0.0000 C.ar    1  UNL1        0.0529
      7 C           5.5321    0.3246    0.0000 C.ar    1  UNL1        0.0873
      8 C           3.8000    0.3246    0.0000 C.ar    1  UNL1        0.0459
      9 C           4.6660    0.8246    0.0000 C.ar    1  UNL1        0.2006
     10 C           6.4260   -1.2100    0.0000 C.ar    1  UNL1        0.0045
     11 C           6.4260    0.8593    0.0000 C.ar    1  UNL1        0.1331
     12 C           4.6660   -2.1754    0.0000 C.3     1  UNL1        0.0124
     13 C           2.9061   -1.2100    0.0000 C.ar    1  UNL1       -0.0375
     14 C           2.9061    0.8593    0.0000 C.ar    1  UNL1       -0.0489
     15 C           7.3321   -0.6962    0.0000 C.ar    1  UNL1        0.1256
     16 C           7.3321    0.3454    0.0000 C.ar    1  UNL1        0.0224
     17 C           2.0000   -0.6962    0.0000 C.ar    1  UNL1       -0.0598
     18 C           2.0000    0.3454    0.0000 C.ar    1  UNL1       -0.0610
     19 C           9.0641   -0.7029    0.0000 C.3     1  UNL1        0.0788
     20 H           6.4188   -1.8300    0.0000 H       1  UNL1        0.0675
     21 H           4.0460   -2.1754    0.0000 H       1  UNL1        0.0456
     22 H           4.6660   -2.7954    0.0000 H       1  UNL1        0.0456
     23 H           5.2860   -2.1754    0.0000 H       1  UNL1        0.0456
     24 H           2.9132   -1.8300    0.0000 H       1  UNL1        0.0638
     25 H           2.9132    1.4792    0.0000 H       1  UNL1        0.0625
     26 H           7.8678    0.6575    0.0000 H       1  UNL1        0.0691
     27 H           1.4643   -1.0083    0.0000 H       1  UNL1        0.0618
     28 H           1.4643    0.6575    0.0000 H       1  UNL1        0.0618
     29 H           6.9478    2.1754    0.0000 H       1  UNL1        0.2922
     30 H           9.3720   -1.2410    0.0000 H       1  UNL1        0.0660
     31 H           9.6022   -0.3950    0.0000 H       1  UNL1        0.0660
     32 H           8.7562   -0.1648    0.0000 H       1  UNL1        0.0660
@<TRIPOS>BOND
     1     1    15    1
     2     1    19    1
     3     2     9    2
     4     3    11    1
     5     3    29    1
     6     4     5   ar
     7     4     6   ar
     8     4    12    1
     9     5     7   ar
    10     5    10   ar
    11     6     8   ar
    12     6    13   ar
    13     7     9   ar
    14     7    11   ar
    15     8     9   ar
    16     8    14   ar
    17    10    15   ar
    18    10    20    1
    19    11    16   ar
    20    12    21    1
    21    12    22    1
    22    12    23    1
    23    13    17   ar
    24    13    24    1
    25    14    18   ar
    26    14    25    1
    27    15    16   ar
    28    16    26    1
    29    17    18   ar
    30    17    27    1
    31    18    28    1
    32    19    30    1
    33    19    31    1
    34    19    32    1
