@<TRIPOS>MOLECULE
IMPHY000250
 51 53 0 0 0
SMALL
GASTEIGER

@<TRIPOS>ATOM
      1 O           7.7619   -2.8818    0.0000 O.3     1  UNL1       -0.4644
      2 O           6.2619   -3.7478    0.0000 O.2     1  UNL1       -0.2449
      3 N           4.6318    1.4343    0.0000 N.3     1  UNL1       -0.2979
      4 N           4.6783   -2.8205    0.0000 N.ar    1  UNL1       -0.3538
      5 C           4.3211    0.4838    0.0000 C.3     1  UNL1        0.0033
      6 C           3.9639    2.1786    0.0000 C.3     1  UNL1        0.0027
      7 C           5.6103    1.6405    0.0000 C.3     1  UNL1        0.0200
      8 C           4.9889   -0.2605    0.0000 C.3     1  UNL1       -0.0123
      9 C           4.2746    3.1292    0.0000 C.3     1  UNL1       -0.0216
     10 C           5.9209    2.5911    0.0000 C.2     1  UNL1       -0.0597
     11 C           4.6783   -1.2110    0.0000 C.ar    1  UNL1       -0.0130
     12 C           5.2531    3.3354    0.0000 C.2     1  UNL1       -0.0824
     13 C           3.7320   -1.5158    0.0000 C.ar    1  UNL1        0.0035
     14 C           6.8994    2.7973    0.0000 C.3     1  UNL1       -0.0334
     15 C           5.2619   -2.0158    0.0000 C.ar    1  UNL1        0.0570
     16 C           3.7320   -2.5158    0.0000 C.ar    1  UNL1        0.0472
     17 C           2.8660   -1.0158    0.0000 C.ar    1  UNL1       -0.0523
     18 C           7.2101    3.7478    0.0000 C.3     1  UNL1       -0.0615
     19 C           6.2619   -2.0158    0.0000 C.2     1  UNL1        0.0754
     20 C           2.8660   -3.0158    0.0000 C.ar    1  UNL1       -0.0378
     21 C           2.0000   -1.5158    0.0000 C.ar    1  UNL1       -0.0611
     22 C           2.0000   -2.5158    0.0000 C.ar    1  UNL1       -0.0598
     23 C           6.7619   -2.8818    0.0000 C.2     1  UNL1        0.3404
     24 C           6.7619   -1.1497    0.0000 C.2     1  UNL1       -0.0827
     25 C           8.2619   -3.7478    0.0000 C.3     1  UNL1        0.0820
     26 H           3.7742    0.7758    0.0000 H       1  UNL1        0.0430
     27 H           3.9385   -0.0041    0.0000 H       1  UNL1        0.0430
     28 H           3.4170    2.4706    0.0000 H       1  UNL1        0.0430
     29 H           3.5814    1.6907    0.0000 H       1  UNL1        0.0430
     30 H           5.6308    1.0209    0.0000 H       1  UNL1        0.0472
     31 H           6.2241    1.5532    0.0000 H       1  UNL1        0.0472
     32 H           5.5359   -0.5525    0.0000 H       1  UNL1        0.0326
     33 H           5.3715    0.2274    0.0000 H       1  UNL1        0.0326
     34 H           4.2540    3.7488    0.0000 H       1  UNL1        0.0320
     35 H           3.6608    3.2165    0.0000 H       1  UNL1        0.0320
     36 H           5.4457    3.9247    0.0000 H       1  UNL1        0.0572
     37 H           6.9200    2.1776    0.0000 H       1  UNL1        0.0308
     38 H           7.5132    2.7099    0.0000 H       1  UNL1        0.0308
     39 H           4.8709   -3.4098    0.0000 H       1  UNL1        0.1659
     40 H           2.8660   -0.3958    0.0000 H       1  UNL1        0.0624
     41 H           7.7994    3.5552    0.0000 H       1  UNL1        0.0233
     42 H           7.4027    4.3371    0.0000 H       1  UNL1        0.0233
     43 H           6.6208    3.9404    0.0000 H       1  UNL1        0.0233
     44 H           2.8660   -3.6358    0.0000 H       1  UNL1        0.0638
     45 H           1.4631   -1.2058    0.0000 H       1  UNL1        0.0618
     46 H           1.4631   -2.8258    0.0000 H       1  UNL1        0.0618
     47 H           7.3819   -1.1497    0.0000 H       1  UNL1        0.0543
     48 H           6.4519   -0.6128    0.0000 H       1  UNL1        0.0543
     49 H           7.7249   -4.0578    0.0000 H       1  UNL1        0.0661
     50 H           8.5719   -4.2847    0.0000 H       1  UNL1        0.0661
     51 H           8.7988   -3.4378    0.0000 H       1  UNL1        0.0661
@<TRIPOS>BOND
     1     1    23    1
     2     1    25    1
     3     2    23    2
     4     3     5    1
     5     3     6    1
     6     3     7    1
     7     4    15   ar
     8     4    16   ar
     9     4    39    1
    10     5     8    1
    11     5    26    1
    12     5    27    1
    13     6     9    1
    14     6    28    1
    15     6    29    1
    16     7    10    1
    17     7    30    1
    18     7    31    1
    19     8    11    1
    20     8    32    1
    21     8    33    1
    22     9    12    1
    23     9    34    1
    24     9    35    1
    25    10    12    2
    26    10    14    1
    27    11    13   ar
    28    11    15   ar
    29    12    36    1
    30    13    16   ar
    31    13    17   ar
    32    14    18    1
    33    14    37    1
    34    14    38    1
    35    15    19    1
    36    16    20   ar
    37    17    21   ar
    38    17    40    1
    39    18    41    1
    40    18    42    1
    41    18    43    1
    42    19    23    1
    43    19    24    2
    44    20    22   ar
    45    20    44    1
    46    21    22   ar
    47    21    45    1
    48    22    46    1
    49    24    47    1
    50    24    48    1
    51    25    49    1
    52    25    50    1
    53    25    51    1
