@<TRIPOS>MOLECULE
IMPHY007344
 71 74 0 0 0
SMALL
GASTEIGER

@<TRIPOS>ATOM
      1 O           7.7331    2.4050    0.0000 O.3     1  UNL1       -0.3829
      2 O           9.4893   -0.4861    0.0000 O.3     1  UNL1       -0.3846
      3 O           6.0010    0.4050    0.0000 O.2     1  UNL1       -0.4699
      4 O          10.2629    0.9050    0.0000 O.3     1  UNL1       -0.4553
      5 O           6.8671   -1.0950    0.0000 O.3     1  UNL1       -0.3094
      6 O           5.1350   -1.0950    0.0000 O.3     1  UNL1       -0.3404
      7 O           6.0010    3.4050    0.0000 O.3     1  UNL1       -0.4645
      8 O           6.8671   -3.0950    0.0000 O.3     1  UNL1       -0.3841
      9 O           7.7331    3.4050    0.0000 O.2     1  UNL1       -0.2451
     10 O           5.1350   -4.0950    0.0000 O.3     1  UNL1       -0.3864
     11 O           3.4030   -3.0950    0.0000 O.3     1  UNL1       -0.3865
     12 O          10.2629    2.6370    0.0000 O.2     1  UNL1       -0.2456
     13 O           2.5369   -1.5950    0.0000 O.3     1  UNL1       -0.3924
     14 C           7.7331    0.4050    0.0000 C.3     1  UNL1        0.0868
     15 C           7.7331    1.4050    0.0000 C.3     1  UNL1        0.1152
     16 C           8.6793    0.1003    0.0000 C.3     1  UNL1        0.1115
     17 C           9.2629    0.9050    0.0000 C.3     1  UNL1        0.1351
     18 C           8.6793    1.7097    0.0000 C.3     1  UNL1        0.0211
     19 C           6.8671   -0.0950    0.0000 C.3     1  UNL1        0.2120
     20 C           6.8671    1.9050    0.0000 C.2     1  UNL1        0.1026
     21 C           8.3719   -0.8513    0.0000 C.3     1  UNL1       -0.0320
     22 C           6.0010    1.4050    0.0000 C.2     1  UNL1        0.1006
     23 C           6.0010   -1.5950    0.0000 C.3     1  UNL1        0.1918
     24 C           6.8671    2.9050    0.0000 C.2     1  UNL1        0.3406
     25 C           6.0010   -2.5950    0.0000 C.3     1  UNL1        0.1342
     26 C           5.1350   -3.0950    0.0000 C.3     1  UNL1        0.1141
     27 C           4.2690   -1.5950    0.0000 C.3     1  UNL1        0.1130
     28 C           4.2690   -2.5950    0.0000 C.3     1  UNL1        0.1119
     29 C          10.7629    1.7710    0.0000 C.2     1  UNL1        0.3323
     30 C           3.4030   -1.0950    0.0000 C.3     1  UNL1        0.0730
     31 C          11.7629    1.7710    0.0000 C.2     1  UNL1        0.0231
     32 C           6.0010    4.4050    0.0000 C.3     1  UNL1        0.0820
     33 C          12.2629    2.6370    0.0000 C.2     1  UNL1       -0.0478
     34 C          13.2629    2.6370    0.0000 C.ar    1  UNL1       -0.0248
     35 C          13.7629    1.7710    0.0000 C.ar    1  UNL1       -0.0546
     36 C          13.7629    3.5031    0.0000 C.ar    1  UNL1       -0.0546
     37 C          14.7629    1.7710    0.0000 C.ar    1  UNL1       -0.0612
     38 C          14.7629    3.5031    0.0000 C.ar    1  UNL1       -0.0612
     39 C          15.2629    2.6370    0.0000 C.ar    1  UNL1       -0.0617
     40 H           7.8230   -0.4402    0.0000 H       1  UNL1        0.0422
     41 H           9.5446    1.4573    0.0000 H       1  UNL1        0.0764
     42 H           9.2167    2.0190    0.0000 H       1  UNL1        0.0333
     43 H           8.4283    2.2766    0.0000 H       1  UNL1        0.0333
     44 H           7.4040   -0.4050    0.0000 H       1  UNL1        0.1061
     45 H           7.7820   -0.6608    0.0000 H       1  UNL1        0.0259
     46 H           8.1814   -1.4413    0.0000 H       1  UNL1        0.0259
     47 H           8.9619   -1.0419    0.0000 H       1  UNL1        0.0259
     48 H           8.2700    2.7150    0.0000 H       1  UNL1        0.2106
     49 H           9.4256   -1.1028    0.0000 H       1  UNL1        0.2103
     50 H           5.4641    1.7150    0.0000 H       1  UNL1        0.1030
     51 H           6.0010   -0.9750    0.0000 H       1  UNL1        0.0939
     52 H           6.0010   -3.2150    0.0000 H       1  UNL1        0.0671
     53 H           4.5981   -3.4050    0.0000 H       1  UNL1        0.0648
     54 H           3.7320   -2.2850    0.0000 H       1  UNL1        0.0647
     55 H           4.2690   -0.9750    0.0000 H       1  UNL1        0.0647
     56 H           3.8015   -0.6201    0.0000 H       1  UNL1        0.0584
     57 H           3.0044   -0.6201    0.0000 H       1  UNL1        0.0584
     58 H           6.8671   -3.7150    0.0000 H       1  UNL1        0.2101
     59 H          12.0729    1.2341    0.0000 H       1  UNL1        0.0689
     60 H           4.5981   -4.4050    0.0000 H       1  UNL1        0.2100
     61 H           3.4030   -3.7150    0.0000 H       1  UNL1        0.2100
     62 H           6.6210    4.4050    0.0000 H       1  UNL1        0.0661
     63 H           6.0010    5.0250    0.0000 H       1  UNL1        0.0661
     64 H           5.3810    4.4050    0.0000 H       1  UNL1        0.0661
     65 H          11.9529    3.1740    0.0000 H       1  UNL1        0.0626
     66 H           2.0000   -1.2850    0.0000 H       1  UNL1        0.2095
     67 H          13.4529    1.2341    0.0000 H       1  UNL1        0.0623
     68 H          13.4529    4.0400    0.0000 H       1  UNL1        0.0623
     69 H          15.0729    1.2341    0.0000 H       1  UNL1        0.0618
     70 H          15.0729    4.0400    0.0000 H       1  UNL1        0.0618
     71 H          15.8829    2.6370    0.0000 H       1  UNL1        0.0618
@<TRIPOS>BOND
     1    15     1    1
     2     1    48    1
     3    16     2    1
     4     2    49    1
     5     3    19    1
     6     3    22    1
     7    17     4    1
     8     4    29    1
     9    19     5    1
    10    23     5    1
    11     6    23    1
    12     6    27    1
    13     7    24    1
    14     7    32    1
    15    25     8    1
    16     8    58    1
    17     9    24    2
    18    26    10    1
    19    10    60    1
    20    28    11    1
    21    11    61    1
    22    12    29    2
    23    13    30    1
    24    13    66    1
    25    14    15    1
    26    14    16    1
    27    14    19    1
    28    14    40    1
    29    15    18    1
    30    15    20    1
    31    16    17    1
    32    16    21    1
    33    17    18    1
    34    17    41    1
    35    18    42    1
    36    18    43    1
    37    19    44    1
    38    20    22    2
    39    20    24    1
    40    21    45    1
    41    21    46    1
    42    21    47    1
    43    22    50    1
    44    23    25    1
    45    23    51    1
    46    25    26    1
    47    25    52    1
    48    26    28    1
    49    26    53    1
    50    27    28    1
    51    27    30    1
    52    27    55    1
    53    28    54    1
    54    29    31    1
    55    30    56    1
    56    30    57    1
    57    31    33    2
    58    31    59    1
    59    32    62    1
    60    32    63    1
    61    32    64    1
    62    33    34    1
    63    33    65    1
    64    34    35   ar
    65    34    36   ar
    66    35    37   ar
    67    35    67    1
    68    36    38   ar
    69    36    68    1
    70    37    39   ar
    71    37    69    1
    72    38    39   ar
    73    38    70    1
    74    39    71    1
