@<TRIPOS>MOLECULE
IMPHY008925
 75 78 0 0 0
SMALL
GASTEIGER

@<TRIPOS>ATOM
      1 CL         11.2372    1.7164    0.0000 Cl      1  UNL1        0.0000
      2 O           7.7731   -1.2836    0.0000 O.3     2  UNL2       -0.3313
      3 O           5.1370    1.1932    0.0000 O.3     2  UNL2       -0.3313
      4 O           9.5052   -1.2836    0.0000 O.3     2  UNL2       -0.4515
      5 O           6.8689    1.2133    0.0000 O.3     2  UNL2       -0.4598
      6 O           7.7731   -4.2836    0.0000 O.3     2  UNL2       -0.3864
      7 O           6.0410   -3.2836    0.0000 O.3     2  UNL2       -0.3865
      8 O           5.1023    4.1931    0.0000 O.3     2  UNL2       -0.3864
      9 O           3.3819    3.1731    0.0000 O.3     2  UNL2       -0.3865
     10 O           9.5052   -3.2836    0.0000 O.3     2  UNL2       -0.3829
     11 O           6.8458    3.2131    0.0000 O.3     2  UNL2       -0.3829
     12 O           5.1750   -1.7836    0.0000 O.3     2  UNL2       -0.3924
     13 O           2.5333    1.6632    0.0000 O.3     2  UNL2       -0.3924
     14 O          10.3712    1.2164    0.0000 O.2     2  UNL2       -0.1997
     15 O           8.6270    4.2857    0.0000 O.3     2  UNL2       -0.5063
     16 O          12.1032   -2.7836    0.0000 O.3     2  UNL2       -0.5033
     17 O          13.8353   -1.7836    0.0000 O.3     2  UNL2       -0.5033
     18 C           7.7731   -3.2836    0.0000 C.3     2  UNL2        0.1152
     19 C           6.9071   -2.7836    0.0000 C.3     2  UNL2        0.1120
     20 C           5.1139    3.1931    0.0000 C.3     2  UNL2        0.1152
     21 C           4.2537    2.6831    0.0000 C.3     2  UNL2        0.1120
     22 C           8.6391   -2.7836    0.0000 C.3     2  UNL2        0.1454
     23 C           5.9856    2.7032    0.0000 C.3     2  UNL2        0.1454
     24 C           6.9071   -1.7836    0.0000 C.3     2  UNL2        0.1140
     25 C           4.2652    1.6832    0.0000 C.3     2  UNL2        0.1140
     26 C           8.6391   -1.7836    0.0000 C.3     2  UNL2        0.2312
     27 C           5.9972    1.7032    0.0000 C.3     2  UNL2        0.2308
     28 C           6.0410   -1.2836    0.0000 C.3     2  UNL2        0.0731
     29 C           3.4051    1.1732    0.0000 C.3     2  UNL2        0.0731
     30 C           7.7291    1.7232    0.0000 C.ar    2  UNL2        0.1437
     31 C           9.5052   -0.2836    0.0000 C.ar    2  UNL2        0.2288
     32 C           8.6391    1.2164    0.0000 C.ar    2  UNL2        0.1245
     33 C           8.6391    0.2164    0.0000 C.ar    2  UNL2        0.0093
     34 C          10.3712    0.2164    0.0000 C.ar    2  UNL2        0.4046
     35 C           9.5052    1.7164    0.0000 C.ar    2  UNL2        0.3708
     36 C           7.7211    2.7648    0.0000 C.ar    2  UNL2        0.0229
     37 C           9.5212    2.7579    0.0000 C.ar    2  UNL2        0.0847
     38 C           8.6232    3.2857    0.0000 C.ar    2  UNL2        0.1293
     39 C          11.2372   -0.2836    0.0000 C.ar    2  UNL2        0.0865
     40 C          11.2372   -1.2836    0.0000 C.ar    2  UNL2       -0.0003
     41 C          12.1032    0.2164    0.0000 C.ar    2  UNL2       -0.0418
     42 C          12.1032   -1.7836    0.0000 C.ar    2  UNL2        0.1591
     43 C          12.9692   -0.2836    0.0000 C.ar    2  UNL2       -0.0157
     44 C          12.9692   -1.2836    0.0000 C.ar    2  UNL2        0.1583
     45 H           8.3100   -3.5936    0.0000 H       2  UNL2        0.0648
     46 H           6.9071   -3.4036    0.0000 H       2  UNL2        0.0647
     47 H           5.6472    3.5093    0.0000 H       2  UNL2        0.0648
     48 H           3.7204    2.3669    0.0000 H       2  UNL2        0.0647
     49 H           9.1761   -2.4736    0.0000 H       2  UNL2        0.0683
     50 H           6.5261    2.3994    0.0000 H       2  UNL2        0.0683
     51 H           6.9071   -1.1636    0.0000 H       2  UNL2        0.0647
     52 H           4.2724    1.0632    0.0000 H       2  UNL2        0.0647
     53 H           8.6391   -1.1636    0.0000 H       2  UNL2        0.1084
     54 H           6.0043    1.0833    0.0000 H       2  UNL2        0.1084
     55 H           6.4396   -0.8086    0.0000 H       2  UNL2        0.0584
     56 H           5.6425   -0.8086    0.0000 H       2  UNL2        0.0584
     57 H           3.0120    0.6937    0.0000 H       2  UNL2        0.0584
     58 H           3.8091    0.7029    0.0000 H       2  UNL2        0.0584
     59 H           7.2362   -4.5936    0.0000 H       2  UNL2        0.2100
     60 H           6.0410   -3.9036    0.0000 H       2  UNL2        0.2100
     61 H           4.5618    4.4968    0.0000 H       2  UNL2        0.2100
     62 H           3.3748    3.7930    0.0000 H       2  UNL2        0.2100
     63 H           9.5052   -3.9036    0.0000 H       2  UNL2        0.2102
     64 H           6.8386    3.8331    0.0000 H       2  UNL2        0.2102
     65 H           8.1022   -0.0936    0.0000 H       2  UNL2        0.0667
     66 H           4.6381   -1.4736    0.0000 H       2  UNL2        0.2095
     67 H           2.0000    1.3470    0.0000 H       2  UNL2        0.2095
     68 H           7.1830    3.0728    0.0000 H       2  UNL2        0.0691
     69 H          10.0617    3.0617    0.0000 H       2  UNL2        0.0749
     70 H          10.7003   -1.5936    0.0000 H       2  UNL2        0.0664
     71 H          12.1032    0.8364    0.0000 H       2  UNL2        0.0628
     72 H           9.1652    4.5936    0.0000 H       2  UNL2        0.2921
     73 H          13.5062    0.0264    0.0000 H       2  UNL2        0.0655
     74 H          12.6402   -3.0936    0.0000 H       2  UNL2        0.2923
     75 H          14.3722   -1.4736    0.0000 H       2  UNL2        0.2923
@<TRIPOS>UNITY_ATOM_ATTR
1 1
charge -1
14 1
charge 1
@<TRIPOS>BOND
     1     2    24    1
     2     2    26    1
     3     3    25    1
     4     3    27    1
     5    26     4    1
     6     4    31    1
     7    27     5    1
     8     5    30    1
     9    18     6    1
    10     6    59    1
    11    19     7    1
    12     7    60    1
    13    20     8    1
    14     8    61    1
    15    21     9    1
    16     9    62    1
    17    22    10    1
    18    10    63    1
    19    23    11    1
    20    11    64    1
    21    12    28    1
    22    12    66    1
    23    13    29    1
    24    13    67    1
    25    14    34   ar
    26    14    35   ar
    27    15    38    1
    28    15    72    1
    29    16    42    1
    30    16    74    1
    31    17    44    1
    32    17    75    1
    33    18    19    1
    34    18    22    1
    35    18    45    1
    36    19    24    1
    37    19    46    1
    38    20    21    1
    39    20    23    1
    40    20    47    1
    41    21    25    1
    42    21    48    1
    43    22    26    1
    44    22    49    1
    45    23    27    1
    46    23    50    1
    47    24    28    1
    48    24    51    1
    49    25    29    1
    50    25    52    1
    51    26    53    1
    52    27    54    1
    53    28    55    1
    54    28    56    1
    55    29    57    1
    56    29    58    1
    57    30    32   ar
    58    30    36   ar
    59    31    33   ar
    60    31    34   ar
    61    32    33   ar
    62    32    35   ar
    63    33    65    1
    64    34    39    1
    65    35    37   ar
    66    36    38   ar
    67    36    68    1
    68    37    38   ar
    69    37    69    1
    70    39    40   ar
    71    39    41   ar
    72    40    42   ar
    73    40    70    1
    74    41    43   ar
    75    41    71    1
    76    42    44   ar
    77    43    44   ar
    78    43    73    1
