@<TRIPOS>MOLECULE
IMPHY001296
 55 61 0 0 0
SMALL
GASTEIGER

@<TRIPOS>ATOM
      1 O        2500.0000 2620.1500    0.0000 O.3     1  UNL1       -0.2232
      2 C        2534.6400 2600.2000    0.0000 C.3     1  UNL1        0.1519
      3 C        2534.6400 2559.9000    0.0000 C.3     1  UNL1        0.0282
      4 C        2500.1000 2539.6500    0.0000 C.3     1  UNL1        0.0025
      5 C        2500.1000 2580.0500    0.0000 C.3     1  UNL1        0.0025
      6 C        2500.1000 2499.3500    0.0000 C.3     1  UNL1        0.0023
      7 C        2534.6400 2479.2100    0.0000 C.3     1  UNL1        0.0001
      8 C        2569.1800 2499.3500    0.0000 C.3     1  UNL1        0.0001
      9 C        2569.1800 2539.6500    0.0000 C.3     1  UNL1        0.0024
     10 C        2603.7200 2559.9000    0.0000 C.3     1  UNL1        0.0027
     11 C        2603.7200 2600.2000    0.0000 C.3     1  UNL1        0.0049
     12 C        2569.1800 2620.3500    0.0000 C.3     1  UNL1        0.0330
     13 C        2603.7200 2640.2000    0.0000 C.3     1  UNL1        0.0002
     14 C        2638.2600 2620.3500    0.0000 C.3     1  UNL1        0.0305
     15 C        2638.2600 2660.3500    0.0000 C.3     1  UNL1        0.0029
     16 C        2672.9000 2680.3000    0.0000 C.3     1  UNL1        0.0078
     17 C        2707.5400 2660.3500    0.0000 C.3     1  UNL1        0.0645
     18 C        2742.1800 2680.3000    0.0000 C.2     1  UNL1        0.1502
     19 C        2776.8200 2660.3500    0.0000 C.3     1  UNL1        0.0576
     20 C        2811.4600 2680.3000    0.0000 C.3     1  UNL1        0.0078
     21 C        2776.8200 2620.3500    0.0000 C.3     1  UNL1        0.0078
     22 O        2742.1800 2720.3000    0.0000 O.2     1  UNL1       -0.2961
     23 C        2603.6200 2680.3000    0.0000 C.3     1  UNL1        0.0001
     24 C        2672.8000 2600.2000    0.0000 C.3     1  UNL1        0.1519
     25 C        2672.8000 2559.9000    0.0000 C.3     1  UNL1        0.0329
     26 O        2707.4400 2620.1500    0.0000 O.3     1  UNL1       -0.2232
     27 C        2603.7200 2519.9000    0.0000 C.3     1  UNL1        0.0001
     28 C        2465.4600 2479.2100    0.0000 C.3     1  UNL1        0.0251
     29 C        2439.7500 2448.6400    0.0000 C.3     1  UNL1        0.0024
     30 C        2491.2700 2448.6400    0.0000 C.3     1  UNL1        0.0024
     31 C        2430.9200 2499.3500    0.0000 C.3     1  UNL1        0.1177
     32 C        2430.9200 2539.6500    0.0000 C.3     1  UNL1        0.0296
     33 C        2465.4600 2559.9000    0.0000 C.3     1  UNL1        0.0026
     34 O        2396.2800 2479.4000    0.0000 O.3     1  UNL1       -0.3312
     35 C        2361.6400 2499.3500    0.0000 C.3     1  UNL1        0.2661
     36 C        2327.1000 2479.4000    0.0000 C.3     1  UNL1        0.2066
     37 O        2327.1000 2399.7000    0.0000 O.3     1  UNL1       -0.3231
     38 C        2292.4600 2379.6500    0.0000 C.3     1  UNL1        0.2695
     39 C        2257.8200 2399.7000    0.0000 C.3     1  UNL1        0.2406
     40 O        2257.8200 2439.7000    0.0000 O.3     1  UNL1       -0.2149
     41 C        2223.1800 2379.6500    0.0000 C.3     1  UNL1        0.2197
     42 O        2188.5400 2399.7000    0.0000 O.3     1  UNL1       -0.2174
     43 C        2223.1800 2339.6500    0.0000 C.3     1  UNL1        0.2118
     44 C        2257.8200 2319.7000    0.0000 C.3     1  UNL1        0.1508
     45 O        2292.4600 2339.6500    0.0000 O.3     1  UNL1       -0.3284
     46 C        2257.8200 2279.7000    0.0000 C.3     1  UNL1        0.0350
     47 O        2188.5400 2319.7000    0.0000 O.3     1  UNL1       -0.2177
     48 C        2292.3600 2499.3500    0.0000 C.3     1  UNL1        0.2166
     49 O        2257.7200 2479.4000    0.0000 O.3     1  UNL1       -0.2175
     50 C        2292.3600 2539.3500    0.0000 C.3     1  UNL1        0.2143
     51 C        2327.1000 2559.4000    0.0000 C.3     1  UNL1        0.1835
     52 O        2361.6400 2539.3500    0.0000 O.3     1  UNL1       -0.3257
     53 C        2327.1000 2599.4000    0.0000 C.3     1  UNL1        0.2142
     54 O        2292.4600 2619.3500    0.0000 O.3     1  UNL1       -0.2176
     55 O        2257.7200 2559.4000    0.0000 O.3     1  UNL1       -0.2176
@<TRIPOS>BOND
     1     2     1    1
     2     2     3    1
     3     2    12    1
     4     3     4    1
     5     3     5    1
     6     3     9    1
     7     4     5    1
     8     4     6    1
     9     4    33    1
    10     6     7    1
    11     6    28    1
    12     8     7    1
    13     9     8    1
    14     9    10    1
    15    10    25    1
    16    10    27    1
    17    11    10    1
    18    11    13    1
    19    11    14    1
    20    12    11    1
    21    14    15    1
    22    14    24    1
    23    15    16    1
    24    15    23    1
    25    16    17    1
    26    17    18    1
    27    18    19    1
    28    18    22    2
    29    19    20    1
    30    19    21    1
    31    24    26    1
    32    25    24    1
    33    28    29    1
    34    28    30    1
    35    28    31    1
    36    31    34    1
    37    32    31    1
    38    33    32    1
    39    35    34    1
    40    35    36    1
    41    35    52    1
    42    36    37    1
    43    36    48    1
    44    38    37    1
    45    38    39    1
    46    38    45    1
    47    39    40    1
    48    39    41    1
    49    41    42    1
    50    41    43    1
    51    43    47    1
    52    44    43    1
    53    44    46    1
    54    45    44    1
    55    48    49    1
    56    48    50    1
    57    50    55    1
    58    51    50    1
    59    51    53    1
    60    52    51    1
    61    53    54    1
