@<TRIPOS>MOLECULE
IMPHY009930
 30 32 0 0 0
SMALL
GASTEIGER

@<TRIPOS>ATOM
      1 O           6.4144    2.0346    0.0000 O.3     1  UNL1       -0.5057
      2 O           6.4144   -2.0346    0.0000 O.3     1  UNL1       -0.5060
      3 O           4.6660    2.0000    0.0000 O.2     1  UNL1       -0.2865
      4 O           4.6660   -2.0000    0.0000 O.2     1  UNL1       -0.2865
      5 O           9.0641    0.5275    0.0000 O.3     1  UNL1       -0.3903
      6 C           5.5321    0.5000    0.0000 C.ar    1  UNL1        0.0783
      7 C           5.5321   -0.5000    0.0000 C.ar    1  UNL1        0.0779
      8 C           3.8000    0.5000    0.0000 C.ar    1  UNL1        0.0332
      9 C           3.8000   -0.5000    0.0000 C.ar    1  UNL1        0.0332
     10 C           4.6660    1.0000    0.0000 C.2     1  UNL1        0.1981
     11 C           6.4260    1.0347    0.0000 C.ar    1  UNL1        0.1339
     12 C           4.6660   -1.0000    0.0000 C.2     1  UNL1        0.1981
     13 C           7.3321    0.5208    0.0000 C.ar    1  UNL1        0.0234
     14 C           6.4260   -1.0347    0.0000 C.ar    1  UNL1        0.1289
     15 C           7.3321   -0.5208    0.0000 C.ar    1  UNL1       -0.0106
     16 C           2.9061    1.0347    0.0000 C.ar    1  UNL1       -0.0502
     17 C           2.9061   -1.0347    0.0000 C.ar    1  UNL1       -0.0502
     18 C           8.1962    1.0241    0.0000 C.3     1  UNL1        0.0728
     19 C           2.0000    0.5208    0.0000 C.ar    1  UNL1       -0.0610
     20 C           2.0000   -0.5208    0.0000 C.ar    1  UNL1       -0.0610
     21 H           7.8678   -0.8329    0.0000 H       1  UNL1        0.0659
     22 H           2.9132    1.6546    0.0000 H       1  UNL1        0.0625
     23 H           2.9132   -1.6546    0.0000 H       1  UNL1        0.0625
     24 H           8.5929    1.5006    0.0000 H       1  UNL1        0.0608
     25 H           7.7958    1.4976    0.0000 H       1  UNL1        0.0608
     26 H           1.4643    0.8329    0.0000 H       1  UNL1        0.0618
     27 H           1.4643   -0.8329    0.0000 H       1  UNL1        0.0618
     28 H           6.9478    2.3508    0.0000 H       1  UNL1        0.2922
     29 H           6.9478   -2.3508    0.0000 H       1  UNL1        0.2922
     30 H           9.5998    0.8396    0.0000 H       1  UNL1        0.2098
@<TRIPOS>BOND
     1     1    11    1
     2     1    28    1
     3     2    14    1
     4     2    29    1
     5     3    10    2
     6     4    12    2
     7     5    18    1
     8     5    30    1
     9     6     7   ar
    10     6    10    1
    11     6    11   ar
    12     7    12    1
    13     7    14   ar
    14     8     9   ar
    15     8    10    1
    16     8    16   ar
    17     9    12    1
    18     9    17   ar
    19    11    13   ar
    20    13    15   ar
    21    13    18    1
    22    14    15   ar
    23    15    21    1
    24    16    19   ar
    25    16    22    1
    26    17    20   ar
    27    17    23    1
    28    18    24    1
    29    18    25    1
    30    19    20   ar
    31    19    26    1
    32    20    27    1
