@<TRIPOS>MOLECULE
IMPHY003179
 25 24 0 0 0
SMALL
GASTEIGER

@<TRIPOS>ATOM
      1 O           3.7320   -0.7500    0.0000 O.2     1  UNL1       -0.2974
      2 C           5.4641    0.2500    0.0000 C.3     1  UNL1       -0.0464
      3 C           6.3301    0.7500    0.0000 C.3     1  UNL1       -0.0529
      4 C           4.5981    0.7500    0.0000 C.3     1  UNL1        0.0058
      5 C           7.1962    0.2500    0.0000 C.3     1  UNL1       -0.0559
      6 C           3.7320    0.2500    0.0000 C.2     1  UNL1        0.1331
      7 C           2.8660    0.7500    0.0000 C.3     1  UNL1        0.0030
      8 C           8.0622    0.7500    0.0000 C.3     1  UNL1       -0.0653
      9 C           2.0000    0.2500    0.0000 C.3     1  UNL1       -0.0586
     10 H           5.0656   -0.2249    0.0000 H       1  UNL1        0.0269
     11 H           5.8626   -0.2249    0.0000 H       1  UNL1        0.0269
     12 H           6.7287    1.2250    0.0000 H       1  UNL1        0.0265
     13 H           5.9316    1.2250    0.0000 H       1  UNL1        0.0265
     14 H           4.9966    1.2250    0.0000 H       1  UNL1        0.0342
     15 H           4.1996    1.2250    0.0000 H       1  UNL1        0.0342
     16 H           6.7976   -0.2249    0.0000 H       1  UNL1        0.0263
     17 H           7.5947   -0.2249    0.0000 H       1  UNL1        0.0263
     18 H           3.2646    1.2250    0.0000 H       1  UNL1        0.0339
     19 H           2.4675    1.2250    0.0000 H       1  UNL1        0.0339
     20 H           8.3722    0.2131    0.0000 H       1  UNL1        0.0230
     21 H           8.5991    1.0600    0.0000 H       1  UNL1        0.0230
     22 H           7.7522    1.2869    0.0000 H       1  UNL1        0.0230
     23 H           1.6900    0.7869    0.0000 H       1  UNL1        0.0234
     24 H           1.4631   -0.0600    0.0000 H       1  UNL1        0.0234
     25 H           2.3100   -0.2869    0.0000 H       1  UNL1        0.0234
@<TRIPOS>BOND
     1     1     6    2
     2     2     3    1
     3     2     4    1
     4     2    10    1
     5     2    11    1
     6     3     5    1
     7     3    12    1
     8     3    13    1
     9     4     6    1
    10     4    14    1
    11     4    15    1
    12     5     8    1
    13     5    16    1
    14     5    17    1
    15     6     7    1
    16     7     9    1
    17     7    18    1
    18     7    19    1
    19     8    20    1
    20     8    21    1
    21     8    22    1
    22     9    23    1
    23     9    24    1
    24     9    25    1
