@<TRIPOS>MOLECULE
IMPHY011773
 72 77 0 0 0
SMALL
GASTEIGER

@<TRIPOS>ATOM
      1 O          10.7429    1.6355    0.0000 O.3     1  UNL1       -0.4914
      2 O          12.5168    0.6114    0.0000 O.3     1  UNL1       -0.4914
      3 O           2.6168    3.8955    0.0000 O.3     1  UNL1       -0.5067
      4 N           8.9988   -2.4338    0.0000 N.3     1  UNL1       -0.2948
      5 N           7.2406    0.6112    0.0000 N.3     1  UNL1       -0.3078
      6 N           4.4918    0.3018    0.0000 N.ar    1  UNL1       -0.3565
      7 C           7.1987   -1.4129    0.0000 C.3     1  UNL1       -0.0336
      8 C           7.1987   -2.4546    0.0000 C.3     1  UNL1       -0.0255
      9 C           8.9988   -1.4338    0.0000 C.3     1  UNL1        0.0363
     10 C           8.1048   -0.8991    0.0000 C.3     1  UNL1       -0.0300
     11 C           8.1048   -2.9684    0.0000 C.3     1  UNL1        0.0026
     12 C           6.3346   -0.9096    0.0000 C.3     1  UNL1       -0.0288
     13 C           6.3385    0.0904    0.0000 C.3     1  UNL1        0.0486
     14 C           6.3346   -2.9579    0.0000 C.3     1  UNL1       -0.0516
     15 C           9.8648   -2.9338    0.0000 C.3     1  UNL1        0.0035
     16 C           9.8648   -0.9337    0.0000 C.ar    1  UNL1       -0.0234
     17 C          10.7308   -2.4338    0.0000 C.3     1  UNL1       -0.0144
     18 C          10.7308   -1.4338    0.0000 C.ar    1  UNL1       -0.0378
     19 C           5.4405    0.6181    0.0000 C.ar    1  UNL1        0.0374
     20 C           6.3385   -3.9579    0.0000 C.3     1  UNL1       -0.0650
     21 C           5.4328    1.6181    0.0000 C.ar    1  UNL1       -0.0163
     22 C           9.8487    0.1078    0.0000 C.ar    1  UNL1       -0.0114
     23 C           7.2326    1.6528    0.0000 C.3     1  UNL1        0.0005
     24 C           6.3226    2.1597    0.0000 C.3     1  UNL1       -0.0128
     25 C          11.6408   -0.9269    0.0000 C.ar    1  UNL1       -0.0128
     26 C           4.4794    1.9198    0.0000 C.ar    1  UNL1        0.0066
     27 C          10.7468    0.6355    0.0000 C.ar    1  UNL1        0.1618
     28 C           3.8978    1.1063    0.0000 C.ar    1  UNL1        0.0472
     29 C          11.6488    0.1147    0.0000 C.ar    1  UNL1        0.1618
     30 C           4.0630    2.8746    0.0000 C.ar    1  UNL1       -0.0108
     31 C           2.8596    1.1912    0.0000 C.ar    1  UNL1       -0.0343
     32 C           3.0271    2.9835    0.0000 C.ar    1  UNL1        0.1176
     33 C           2.4214    2.1361    0.0000 C.ar    1  UNL1       -0.0182
     34 C          11.6070    2.1388    0.0000 C.3     1  UNL1        0.0790
     35 C          13.3809    0.1080    0.0000 C.3     1  UNL1        0.0790
     36 H           6.6612   -1.7219    0.0000 H       1  UNL1        0.0305
     37 H           7.2023   -3.0746    0.0000 H       1  UNL1        0.0316
     38 H           9.0053   -0.5838    0.0000 H       1  UNL1        0.0512
     39 H           8.5094   -0.4293    0.0000 H       1  UNL1        0.0286
     40 H           7.7112   -0.4201    0.0000 H       1  UNL1        0.0286
     41 H           7.7112   -3.4474    0.0000 H       1  UNL1        0.0429
     42 H           8.5094   -3.4382    0.0000 H       1  UNL1        0.0429
     43 H           5.7245   -0.7996    0.0000 H       1  UNL1        0.0287
     44 H           6.1204   -1.4914    0.0000 H       1  UNL1        0.0287
     45 H           6.8748   -0.2206    0.0000 H       1  UNL1        0.0525
     46 H           6.1204   -2.3761    0.0000 H       1  UNL1        0.0266
     47 H           5.7245   -3.0679    0.0000 H       1  UNL1        0.0266
     48 H           9.4662   -3.4087    0.0000 H       1  UNL1        0.0430
     49 H          10.2633   -3.4087    0.0000 H       1  UNL1        0.0430
     50 H          10.9429   -3.0164    0.0000 H       1  UNL1        0.0326
     51 H          11.3414   -2.3261    0.0000 H       1  UNL1        0.0326
     52 H           7.7787    0.3033    0.0000 H       1  UNL1        0.1226
     53 H           5.7185   -3.9603    0.0000 H       1  UNL1        0.0230
     54 H           6.3409   -4.5779    0.0000 H       1  UNL1        0.0230
     55 H           6.9585   -3.9555    0.0000 H       1  UNL1        0.0230
     56 H           9.3082    0.4115    0.0000 H       1  UNL1        0.0659
     57 H           7.8442    1.5514    0.0000 H       1  UNL1        0.0427
     58 H           7.4371    2.2381    0.0000 H       1  UNL1        0.0427
     59 H           6.7125    2.6417    0.0000 H       1  UNL1        0.0326
     60 H           5.9144    2.6263    0.0000 H       1  UNL1        0.0326
     61 H          12.1741   -1.2431    0.0000 H       1  UNL1        0.0658
     62 H           4.3048   -0.2893    0.0000 H       1  UNL1        0.1656
     63 H           4.4294    3.3748    0.0000 H       1  UNL1        0.0661
     64 H           2.5050    0.6826    0.0000 H       1  UNL1        0.0639
     65 H           1.8040    2.1938    0.0000 H       1  UNL1        0.0655
     66 H          11.9191    1.6031    0.0000 H       1  UNL1        0.0660
     67 H          12.1427    2.4509    0.0000 H       1  UNL1        0.0660
     68 H          11.2949    2.6746    0.0000 H       1  UNL1        0.0660
     69 H          13.0688   -0.4277    0.0000 H       1  UNL1        0.0660
     70 H          13.9166   -0.2040    0.0000 H       1  UNL1        0.0660
     71 H          13.6929    0.6438    0.0000 H       1  UNL1        0.0660
     72 H           2.0000    3.9579    0.0000 H       1  UNL1        0.2921
@<TRIPOS>BOND
     1     1    27    1
     2     1    34    1
     3     2    29    1
     4     2    35    1
     5     3    32    1
     6     3    72    1
     7     4     9    1
     8     4    11    1
     9     4    15    1
    10     5    13    1
    11     5    23    1
    12     5    52    1
    13     6    19   ar
    14     6    28   ar
    15     6    62    1
    16     7     8    1
    17     7    10    1
    18     7    12    1
    19     7    36    1
    20     8    11    1
    21     8    14    1
    22     8    37    1
    23     9    10    1
    24     9    16    1
    25     9    38    1
    26    10    39    1
    27    10    40    1
    28    11    41    1
    29    11    42    1
    30    13    12    1
    31    12    43    1
    32    12    44    1
    33    13    19    1
    34    13    45    1
    35    14    20    1
    36    14    46    1
    37    14    47    1
    38    15    17    1
    39    15    48    1
    40    15    49    1
    41    16    18   ar
    42    16    22   ar
    43    17    18    1
    44    17    50    1
    45    17    51    1
    46    18    25   ar
    47    19    21   ar
    48    20    53    1
    49    20    54    1
    50    20    55    1
    51    21    24    1
    52    21    26   ar
    53    22    27   ar
    54    22    56    1
    55    23    24    1
    56    23    57    1
    57    23    58    1
    58    24    59    1
    59    24    60    1
    60    25    29   ar
    61    25    61    1
    62    26    28   ar
    63    26    30   ar
    64    27    29   ar
    65    28    31   ar
    66    30    32   ar
    67    30    63    1
    68    31    33   ar
    69    31    64    1
    70    32    33   ar
    71    33    65    1
    72    34    66    1
    73    34    67    1
    74    34    68    1
    75    35    69    1
    76    35    70    1
    77    35    71    1
