@<TRIPOS>MOLECULE
IMPHY010847
 51 57 0 0 0
SMALL
GASTEIGER

@<TRIPOS>ATOM
      1 N           1.5556   -4.2165    0.0000 N.3     1  UNL1       -0.2736
      2 C           1.5556   -6.4271    0.0000 C.3     1  UNL1        0.0742
      3 C           2.1424   -5.3900    0.0000 C.3     1  UNL1        0.0411
      4 C           3.1658   -4.8032    0.0000 C.3     1  UNL1        0.0129
      5 C           3.1658   -3.6297    0.0000 C.3     1  UNL1        0.0342
      6 C           4.1073   -2.8792    0.0000 C.3     1  UNL1       -0.0130
      7 C           5.2672   -3.1385    0.0000 C.3     1  UNL1        0.0485
      8 C           5.7994   -4.2028    0.0000 C.3     1  UNL1        0.1410
      9 C           5.2672   -5.2945    0.0000 C.3     1  UNL1        0.0781
     10 C           4.1073   -5.5401    0.0000 C.3     1  UNL1        0.1164
     11 C           3.1794   -2.1833    0.0000 C.3     1  UNL1        0.0648
     12 C           1.1053   -4.8032    0.0000 C.3     1  UNL1        0.0060
     13 C           1.1053   -3.6297    0.0000 C.3     1  UNL1        0.0297
     14 C           2.1424   -3.0293    0.0000 C.3     1  UNL1        0.1159
     15 C           4.1073   -1.7330    0.0000 C.3     1  UNL1       -0.0020
     16 C           5.1034   -1.2145    0.0000 C.3     1  UNL1        0.0428
     17 C           5.8949   -2.1287    0.0000 C.3     1  UNL1        0.1667
     18 C           6.9592   -4.2028    0.0000 C.3     1  UNL1        0.0693
     19 C           6.9592   -1.2145    0.0000 C.3     1  UNL1        0.1184
     20 C           0.5185   -4.2301    0.0000 C.3     1  UNL1        0.0721
     21 C           0.0000   -3.3568    0.0000 C.3     1  UNL1        0.0188
     22 C           2.7564   -6.4271    0.0000 C.3     1  UNL1        0.1432
     23 O           2.1424   -7.4641    0.0000 O.3     1  UNL1       -0.3511
     24 C           2.7564   -8.5012    0.0000 C.3     1  UNL1        0.1741
     25 O           6.7818   -4.8169    0.0000 O.3     1  UNL1       -0.4557
     26 C           6.7818   -5.9085    0.0000 C.2     1  UNL1        0.3173
     27 O           5.8403   -6.4543    0.0000 O.2     1  UNL1       -0.2501
     28 O           4.0937   -6.7818    0.0000 O.3     1  UNL1       -0.3537
     29 C           5.1171   -7.3959    0.0000 C.3     1  UNL1        0.1740
     30 O           2.1424   -1.8285    0.0000 O.3     1  UNL1       -0.3536
     31 C           1.0234   -1.2008    0.0000 C.3     1  UNL1        0.1740
     32 O           7.5596   -2.1287    0.0000 O.3     1  UNL1       -0.4497
     33 C           8.1464   -3.1658    0.0000 C.2     1  UNL1        0.3412
     34 O           7.5596   -4.1755    0.0000 O.2     1  UNL1       -0.2449
     35 O           7.5050   -0.1501    0.0000 O.3     1  UNL1       -0.3536
     36 C           8.6786   -0.1501    0.0000 C.3     1  UNL1        0.1740
     37 C           7.7234   -6.4543    0.0000 C.3     1  UNL1        0.1212
     38 C           9.3336   -3.1658    0.0000 C.ar    1  UNL1        0.0789
     39 C           9.9203   -4.1755    0.0000 C.ar    1  UNL1        0.0465
     40 C          11.1211   -4.1755    0.0000 C.ar    1  UNL1        0.1726
     41 C          11.6942   -3.1658    0.0000 C.ar    1  UNL1        0.1724
     42 C          11.1211   -2.1287    0.0000 C.ar    1  UNL1        0.0403
     43 C           9.9203   -2.1287    0.0000 C.ar    1  UNL1        0.0098
     44 O          11.7761   -5.2945    0.0000 O.3     1  UNL1       -0.4684
     45 C          11.1211   -6.4271    0.0000 C.3     1  UNL1        0.2526
     46 O          12.9906   -3.1658    0.0000 O.3     1  UNL1       -0.4684
     47 C          13.6455   -4.2847    0.0000 C.3     1  UNL1        0.2526
     48 H           5.1034    0.0000    0.0000 H       1  UNL1        0.0376
     49 H           3.1658   -5.9085    0.0000 H       1  UNL1        0.0344
     50 H           4.9806   -2.0195    0.0000 H       1  UNL1        0.0319
     51 H           6.4816   -3.1385    0.0000 H       1  UNL1        0.0383
@<TRIPOS>BOND
     1     1     2    1
     2     1    11    1
     3     1    20    1
     4     3     2    1
     5     3     4    1
     6     3    12    1
     7     3    22    1
     8     4    10    1
     9     4    49    1
    10     5     4    1
    11     5    14    1
    12     5     6    1
    13     5    11    1
    14     6    15    1
    15     6     7    1
    16     6    50    1
    17     7     8    1
    18     7    17    1
    19     7    51    1
    20     8    25    1
    21     8    18    1
    22     9     8    1
    23     9    10    1
    24     9    11    1
    25    10    28    1
    26    12    13    1
    27    13    14    1
    28    14    30    1
    29    15    16    1
    30    16    17    1
    31    16    48    1
    32    16    19    1
    33    17    32    1
    34    18    19    1
    35    19    35    1
    36    20    21    1
    37    22    23    1
    38    23    24    1
    39    25    26    1
    40    26    27    2
    41    26    37    1
    42    28    29    1
    43    30    31    1
    44    32    33    1
    45    33    34    2
    46    33    38    1
    47    35    36    1
    48    38    43   ar
    49    38    39   ar
    50    39    40   ar
    51    40    41   ar
    52    40    44    1
    53    41    42   ar
    54    41    46    1
    55    42    43   ar
    56    44    45    1
    57    46    47    1
