@<TRIPOS>MOLECULE
IMPHY004032
 99 104 0 0 0
SMALL
GASTEIGER

@<TRIPOS>ATOM
      1 O           5.4564   -2.5933    0.0000 O.3     1  UNL1       -0.4551
      2 O           5.4725   -0.5017    0.0000 O.3     1  UNL1       -0.3881
      3 O          14.3815    0.4932    0.0000 O.3     1  UNL1       -0.4802
      4 O          13.5270   -1.0134    0.0000 O.2     1  UNL1       -0.2504
      5 O           4.5961   -1.0900    0.0000 O.2     1  UNL1       -0.2456
      6 O           2.8757    1.9167    0.0000 O.3     1  UNL1       -0.5068
      7 C           9.9834   -1.0410    0.0000 C.3     1  UNL1       -0.0194
      8 C           9.1174   -0.5410    0.0000 C.3     1  UNL1       -0.0257
      9 C           8.2074   -1.0478    0.0000 C.3     1  UNL1       -0.0226
     10 C          10.8495   -0.5410    0.0000 C.3     1  UNL1       -0.0051
     11 C           8.1994   -2.0894    0.0000 C.3     1  UNL1       -0.0267
     12 C           9.9995   -2.0825    0.0000 C.3     1  UNL1       -0.0463
     13 C           9.1014   -2.6102    0.0000 C.3     1  UNL1       -0.0486
     14 C           7.2640   -2.6391    0.0000 C.3     1  UNL1        0.0080
     15 C          10.8495    0.4590    0.0000 C.2     1  UNL1       -0.0629
     16 C           7.2806   -0.4837    0.0000 C.3     1  UNL1       -0.0174
     17 C           9.1174    0.4590    0.0000 C.3     1  UNL1       -0.0306
     18 C          11.7434    0.9937    0.0000 C.3     1  UNL1       -0.0031
     19 C          11.7434   -1.0756    0.0000 C.3     1  UNL1       -0.0424
     20 C          12.6495    0.4799    0.0000 C.3     1  UNL1        0.0741
     21 C          10.6262   -1.8070    0.0000 C.3     1  UNL1       -0.0585
     22 C           6.3243   -2.0966    0.0000 C.3     1  UNL1        0.1344
     23 C          12.6495   -0.5618    0.0000 C.3     1  UNL1       -0.0359
     24 C           6.3327   -1.0117    0.0000 C.3     1  UNL1        0.0931
     25 C           8.2151   -0.0478    0.0000 C.3     1  UNL1       -0.0589
     26 C           9.9834    0.9590    0.0000 C.2     1  UNL1       -0.0836
     27 C          11.1916   -1.4806    0.0000 C.3     1  UNL1       -0.0553
     28 C          11.7183    2.0784    0.0000 C.3     1  UNL1       -0.0403
     29 C          13.5932    1.0151    0.0000 C.3     1  UNL1       -0.0362
     30 C          12.6495    2.6353    0.0000 C.3     1  UNL1       -0.0343
     31 C           6.7673   -3.5071    0.0000 C.3     1  UNL1       -0.0561
     32 C           7.7673   -3.5032    0.0000 C.3     1  UNL1       -0.0561
     33 C          13.5932    2.1001    0.0000 C.3     1  UNL1       -0.0468
     34 C          13.5193   -0.0135    0.0000 C.2     1  UNL1        0.3115
     35 C          13.1394    3.5071    0.0000 C.3     1  UNL1       -0.0598
     36 C          12.1395    3.4955    0.0000 C.3     1  UNL1       -0.0598
     37 C           4.5923   -2.0900    0.0000 C.2     1  UNL1        0.3323
     38 C           3.7243   -2.5866    0.0000 C.2     1  UNL1        0.0231
     39 C           2.8602   -2.0833    0.0000 C.2     1  UNL1       -0.0478
     40 C           2.8641   -1.0833    0.0000 C.ar    1  UNL1       -0.0246
     41 C           3.7320   -0.5866    0.0000 C.ar    1  UNL1       -0.0511
     42 C           2.0000   -0.5800    0.0000 C.ar    1  UNL1       -0.0511
     43 C           3.7359    0.4134    0.0000 C.ar    1  UNL1       -0.0196
     44 C           2.0038    0.4200    0.0000 C.ar    1  UNL1       -0.0196
     45 C           2.8718    0.9167    0.0000 C.ar    1  UNL1        0.1169
     46 H           9.8535   -0.1160    0.0000 H       1  UNL1        0.0315
     47 H           8.2026   -2.9394    0.0000 H       1  UNL1        0.0312
     48 H          10.2175   -2.6629    0.0000 H       1  UNL1        0.0271
     49 H          10.6086   -1.9670    0.0000 H       1  UNL1        0.0271
     50 H           8.7041   -3.0862    0.0000 H       1  UNL1        0.0268
     51 H           9.5024   -3.0831    0.0000 H       1  UNL1        0.0268
     52 H           7.6888   -0.0171    0.0000 H       1  UNL1        0.0297
     53 H           6.8906   -0.0017    0.0000 H       1  UNL1        0.0297
     54 H           8.9054    1.0416    0.0000 H       1  UNL1        0.0310
     55 H           8.5068    0.3514    0.0000 H       1  UNL1        0.0310
     56 H          12.4729    1.4300    0.0000 H       1  UNL1        0.0357
     57 H          11.3388   -1.5454    0.0000 H       1  UNL1        0.0274
     58 H          12.1370   -1.5546    0.0000 H       1  UNL1        0.0274
     59 H          10.1513   -2.2055    0.0000 H       1  UNL1        0.0235
     60 H          11.0247   -2.2820    0.0000 H       1  UNL1        0.0235
     61 H          11.1012   -1.4085    0.0000 H       1  UNL1        0.0235
     62 H           6.3231   -2.7166    0.0000 H       1  UNL1        0.0766
     63 H          12.8585   -1.1455    0.0000 H       1  UNL1        0.0276
     64 H          13.2603   -0.4557    0.0000 H       1  UNL1        0.0276
     65 H           6.3410   -0.3917    0.0000 H       1  UNL1        0.0630
     66 H           8.8351   -0.0526    0.0000 H       1  UNL1        0.0235
     67 H           8.2199    0.5721    0.0000 H       1  UNL1        0.0235
     68 H           7.5951   -0.0431    0.0000 H       1  UNL1        0.0235
     69 H           9.9834    1.5790    0.0000 H       1  UNL1        0.0572
     70 H          10.6090   -1.6927    0.0000 H       1  UNL1        0.0238
     71 H          11.4037   -2.0632    0.0000 H       1  UNL1        0.0238
     72 H          11.7742   -1.2685    0.0000 H       1  UNL1        0.0238
     73 H          11.4958    2.6571    0.0000 H       1  UNL1        0.0276
     74 H          11.1101    1.9582    0.0000 H       1  UNL1        0.0276
     75 H          13.8023    0.4314    0.0000 H       1  UNL1        0.0276
     76 H          14.2041    1.1212    0.0000 H       1  UNL1        0.0276
     77 H           6.2292   -3.1992    0.0000 H       1  UNL1        0.0236
     78 H           6.4594   -4.0452    0.0000 H       1  UNL1        0.0236
     79 H           7.3054   -3.8150    0.0000 H       1  UNL1        0.0236
     80 H           7.2315   -3.8153    0.0000 H       1  UNL1        0.0236
     81 H           8.0794   -4.0390    0.0000 H       1  UNL1        0.0236
     82 H           8.3030   -3.1912    0.0000 H       1  UNL1        0.0236
     83 H          14.2041    1.9940    0.0000 H       1  UNL1        0.0271
     84 H          13.8023    2.6838    0.0000 H       1  UNL1        0.0271
     85 H           5.4797    0.1183    0.0000 H       1  UNL1        0.2099
     86 H          13.6799    3.2033    0.0000 H       1  UNL1        0.0235
     87 H          12.6728    3.8117    0.0000 H       1  UNL1        0.0235
     88 H          11.8233    4.0288    0.0000 H       1  UNL1        0.0235
     89 H          11.6062    3.1793    0.0000 H       1  UNL1        0.0235
     90 H          13.4432    4.0476    0.0000 H       1  UNL1        0.0235
     91 H          12.5989    3.8108    0.0000 H       1  UNL1        0.0235
     92 H          14.9208    0.1874    0.0000 H       1  UNL1        0.2951
     93 H           3.7219   -3.2066    0.0000 H       1  UNL1        0.0689
     94 H           2.3221   -2.3912    0.0000 H       1  UNL1        0.0626
     95 H           4.2678   -0.8987    0.0000 H       1  UNL1        0.0625
     96 H           1.4619   -0.8879    0.0000 H       1  UNL1        0.0625
     97 H           4.2740    0.7213    0.0000 H       1  UNL1        0.0654
     98 H           1.4681    0.7321    0.0000 H       1  UNL1        0.0654
     99 H           2.3399    2.2288    0.0000 H       1  UNL1        0.2921
@<TRIPOS>BOND
     1    22     1    1
     2     1    37    1
     3    24     2    1
     4     2    85    1
     5     3    34    1
     6     3    92    1
     7     4    34    2
     8     5    37    2
     9     6    45    1
    10     6    99    1
    11     7     8    1
    12     7    10    1
    13     7    12    1
    14     7    21    1
    15     8     9    1
    16     8    17    1
    17     8    46    1
    18     9    11    1
    19     9    16    1
    20     9    25    1
    21    10    15    1
    22    10    19    1
    23    10    27    1
    24    11    13    1
    25    11    14    1
    26    11    47    1
    27    12    13    1
    28    12    48    1
    29    12    49    1
    30    13    50    1
    31    13    51    1
    32    14    22    1
    33    14    31    1
    34    14    32    1
    35    15    18    1
    36    15    26    2
    37    16    24    1
    38    16    52    1
    39    16    53    1
    40    17    26    1
    41    17    54    1
    42    17    55    1
    43    18    20    1
    44    18    28    1
    45    18    56    1
    46    19    23    1
    47    19    57    1
    48    19    58    1
    49    20    23    1
    50    20    29    1
    51    20    34    1
    52    21    59    1
    53    21    60    1
    54    21    61    1
    55    22    24    1
    56    22    62    1
    57    23    63    1
    58    23    64    1
    59    24    65    1
    60    25    66    1
    61    25    67    1
    62    25    68    1
    63    26    69    1
    64    27    70    1
    65    27    71    1
    66    27    72    1
    67    28    30    1
    68    28    73    1
    69    28    74    1
    70    29    33    1
    71    29    75    1
    72    29    76    1
    73    30    33    1
    74    30    35    1
    75    30    36    1
    76    31    77    1
    77    31    78    1
    78    31    79    1
    79    32    80    1
    80    32    81    1
    81    32    82    1
    82    33    83    1
    83    33    84    1
    84    35    86    1
    85    35    90    1
    86    35    91    1
    87    36    87    1
    88    36    88    1
    89    36    89    1
    90    37    38    1
    91    38    39    2
    92    38    93    1
    93    39    40    1
    94    39    94    1
    95    40    41   ar
    96    40    42   ar
    97    41    43   ar
    98    41    95    1
    99    42    44   ar
   100    42    96    1
   101    43    45   ar
   102    43    97    1
   103    44    45   ar
   104    44    98    1
