@<TRIPOS>MOLECULE
IMPHY006421
 25 24 0 0 0
SMALL
GASTEIGER

@<TRIPOS>ATOM
      1 C           2.8660   -0.0600    0.0000 C.3     1  UNL1       -0.0283
      2 C           3.7320    0.4400    0.0000 C.2     1  UNL1       -0.0814
      3 C           2.0000    0.4400    0.0000 C.3     1  UNL1       -0.0592
      4 C           2.8660   -1.0600    0.0000 C.3     1  UNL1       -0.0592
      5 C           4.5981   -0.0600    0.0000 C.2     1  UNL1       -0.0655
      6 C           6.3301   -0.0600    0.0000 C.2     1  UNL1       -0.0757
      7 C           5.4641    0.4400    0.0000 C.2     1  UNL1       -0.0633
      8 C           7.1962    0.4400    0.0000 C.3     1  UNL1       -0.0438
      9 C           6.3301   -1.0600    0.0000 C.3     1  UNL1       -0.0438
     10 H           2.8660    0.5600    0.0000 H       1  UNL1        0.0338
     11 H           3.7320    1.0600    0.0000 H       1  UNL1        0.0575
     12 H           2.3100    0.9769    0.0000 H       1  UNL1        0.0235
     13 H           1.4631    0.7500    0.0000 H       1  UNL1        0.0235
     14 H           1.6900   -0.0969    0.0000 H       1  UNL1        0.0235
     15 H           2.2460   -1.0600    0.0000 H       1  UNL1        0.0235
     16 H           2.8660   -1.6800    0.0000 H       1  UNL1        0.0235
     17 H           3.4860   -1.0600    0.0000 H       1  UNL1        0.0235
     18 H           4.5981   -0.6800    0.0000 H       1  UNL1        0.0615
     19 H           5.4641    1.0600    0.0000 H       1  UNL1        0.0617
     20 H           7.5062   -0.0969    0.0000 H       1  UNL1        0.0274
     21 H           7.7331    0.7500    0.0000 H       1  UNL1        0.0274
     22 H           6.8862    0.9769    0.0000 H       1  UNL1        0.0274
     23 H           5.7101   -1.0600    0.0000 H       1  UNL1        0.0274
     24 H           6.3301   -1.6800    0.0000 H       1  UNL1        0.0274
     25 H           6.9501   -1.0600    0.0000 H       1  UNL1        0.0274
@<TRIPOS>BOND
     1     1     2    1
     2     1     3    1
     3     1     4    1
     4     1    10    1
     5     2     5    2
     6     2    11    1
     7     3    12    1
     8     3    13    1
     9     3    14    1
    10     4    15    1
    11     4    16    1
    12     4    17    1
    13     5     7    1
    14     5    18    1
    15     6     7    2
    16     6     8    1
    17     6     9    1
    18     7    19    1
    19     8    20    1
    20     8    21    1
    21     8    22    1
    22     9    23    1
    23     9    24    1
    24     9    25    1
