@<TRIPOS>MOLECULE
IMPHY008949
 56 61 0 0 0
SMALL
GASTEIGER

@<TRIPOS>ATOM
      1 O          10.5331    0.7470    0.0000 O.3     1  UNL1       -0.2232
      2 O           6.0061   -3.8053    0.0000 O.3     1  UNL1       -0.3311
      3 O          12.9667    1.4528    0.0000 O.3     1  UNL1       -0.3334
      4 O           7.9027   -0.7532    0.0000 O.3     1  UNL1       -0.2204
      5 O           4.2740   -3.7986    0.0000 O.3     1  UNL1       -0.3256
      6 O          14.2559    2.6095    0.0000 O.3     1  UNL1       -0.3256
      7 O           6.0138   -1.8053    0.0000 O.3     1  UNL1       -0.2149
      8 O          14.3024   -0.0358    0.0000 O.3     1  UNL1       -0.2149
      9 O           4.2856   -0.7987    0.0000 O.3     1  UNL1       -0.2174
     10 O          16.2594    0.3766    0.0000 O.3     1  UNL1       -0.2174
     11 O           2.5497   -1.7920    0.0000 O.3     1  UNL1       -0.2176
     12 O          16.8807    2.2777    0.0000 O.3     1  UNL1       -0.2176
     13 O           2.5381   -4.7920    0.0000 O.3     1  UNL1       -0.2176
     14 O          14.8772    4.5106    0.0000 O.3     1  UNL1       -0.2176
     15 C          10.5331   -2.2530    0.0000 C.3     1  UNL1        0.0002
     16 C          11.3991   -1.7530    0.0000 C.3     1  UNL1        0.0024
     17 C           9.6671   -1.7530    0.0000 C.3     1  UNL1        0.0050
     18 C           8.7571   -2.2598    0.0000 C.3     1  UNL1        0.0309
     19 C          11.3991   -0.7530    0.0000 C.3     1  UNL1        0.0327
     20 C           8.7491   -3.3014    0.0000 C.3     1  UNL1        0.0047
     21 C          10.5492   -3.2945    0.0000 C.3     1  UNL1        0.0000
     22 C           9.6671   -0.7530    0.0000 C.3     1  UNL1        0.0330
     23 C          12.3454   -0.4483    0.0000 C.3     1  UNL1        0.0275
     24 C          10.5331   -0.2530    0.0000 C.3     1  UNL1        0.1520
     25 C          12.3454   -2.0577    0.0000 C.3     1  UNL1        0.0002
     26 C           9.6511   -3.8222    0.0000 C.3     1  UNL1        0.0002
     27 C           7.8136   -3.8512    0.0000 C.3     1  UNL1        0.0252
     28 C          12.9290   -1.2530    0.0000 C.3     1  UNL1        0.0024
     29 C           7.8303   -1.6958    0.0000 C.3     1  UNL1        0.0050
     30 C          11.1759   -3.0190    0.0000 C.3     1  UNL1        0.0000
     31 C          11.7413   -2.6926    0.0000 C.3     1  UNL1        0.0001
     32 C           8.7648   -1.2599    0.0000 C.3     1  UNL1        0.1819
     33 C           6.8740   -3.3087    0.0000 C.3     1  UNL1        0.1177
     34 C          12.6560    0.5023    0.0000 C.3     1  UNL1        0.0957
     35 C           6.8824   -2.2237    0.0000 C.3     1  UNL1        0.0297
     36 C           8.3170   -4.7153    0.0000 C.3     1  UNL1        0.0024
     37 C           7.3170   -4.7191    0.0000 C.3     1  UNL1        0.0024
     38 C          13.6065    0.1916    0.0000 C.3     1  UNL1        0.0319
     39 C          11.7055    0.8129    0.0000 C.3     1  UNL1        0.0297
     40 C          13.8128   -0.7869    0.0000 C.3     1  UNL1        0.0278
     41 C           5.1420   -3.3020    0.0000 C.3     1  UNL1        0.2694
     42 C          13.9452    1.6590    0.0000 C.3     1  UNL1        0.2693
     43 C           5.1458   -2.3020    0.0000 C.3     1  UNL1        0.2406
     44 C          14.6130    0.9147    0.0000 C.3     1  UNL1        0.2406
     45 C          14.7633   -1.0976    0.0000 C.2     1  UNL1       -0.0345
     46 C           4.2817   -1.7987    0.0000 C.3     1  UNL1        0.2198
     47 C          15.5915    1.1209    0.0000 C.3     1  UNL1        0.2198
     48 C           3.4099   -3.2953    0.0000 C.3     1  UNL1        0.1835
     49 C          15.2344    2.8157    0.0000 C.3     1  UNL1        0.1835
     50 C           3.4138   -2.2953    0.0000 C.3     1  UNL1        0.2144
     51 C          15.9022    2.0714    0.0000 C.3     1  UNL1        0.2144
     52 C          14.9695   -2.0761    0.0000 C.2     1  UNL1       -0.0478
     53 C           2.5420   -3.7920    0.0000 C.3     1  UNL1        0.2142
     54 C          15.5450    3.7663    0.0000 C.3     1  UNL1        0.2142
     55 C          14.2252   -2.7439    0.0000 C.3     1  UNL1        0.0260
     56 C          15.9200   -2.3867    0.0000 C.3     1  UNL1        0.0260
@<TRIPOS>BOND
     1     1    24    1
     2     2    33    1
     3     3    34    1
     4     4    32    1
     5     5    41    1
     6     5    48    1
     7     6    42    1
     8     6    49    1
     9    13    53    1
    10    14    54    1
    11    15    16    1
    12    15    17    1
    13    15    21    1
    14    15    30    1
    15    16    19    1
    16    16    25    1
    17    16    31    1
    18    17    18    1
    19    17    22    1
    20    18    20    1
    21    18    29    1
    22    18    32    1
    23    19    23    1
    24    19    24    1
    25    20    26    1
    26    20    27    1
    27    21    26    1
    28    22    24    1
    29    23    28    1
    30    23    34    1
    31    25    28    1
    32    27    33    1
    33    27    36    1
    34    27    37    1
    35    29    35    1
    36    33    35    1
    37    34    38    1
    38    34    39    1
    39    38    40    1
    40    40    45    1
    41    41     2    1
    42    41    43    1
    43    42     3    1
    44    42    44    1
    45    43     7    1
    46    43    46    1
    47    44     8    1
    48    44    47    1
    49    45    52    2
    50    46     9    1
    51    46    50    1
    52    47    10    1
    53    47    51    1
    54    48    50    1
    55    48    53    1
    56    49    51    1
    57    49    54    1
    58    50    11    1
    59    51    12    1
    60    52    55    1
    61    52    56    1
