@<TRIPOS>MOLECULE
IMPHY003043
 63 67 0 0 0
SMALL
GASTEIGER

@<TRIPOS>ATOM
      1 N           7.2241   -1.7847    0.0000 N.3     1  UNL1       -0.3021
      2 N           3.7320    1.2500    0.0000 N.2     1  UNL1       -0.2921
      3 C           6.3301   -0.2500    0.0000 C.3     1  UNL1       -0.0179
      4 C           6.3301   -1.2500    0.0000 C.3     1  UNL1        0.0141
      5 C           5.4641    0.2500    0.0000 C.3     1  UNL1       -0.0031
      6 C           4.5981   -0.2500    0.0000 C.3     1  UNL1        0.0110
      7 C           4.5981   -1.2500    0.0000 C.3     1  UNL1       -0.0060
      8 C           5.4641   -1.7500    0.0000 C.3     1  UNL1       -0.0296
      9 C           7.2241    0.2847    0.0000 C.3     1  UNL1       -0.0471
     10 C           8.1301   -0.2292    0.0000 C.3     1  UNL1       -0.0399
     11 C           8.1301   -1.2708    0.0000 C.3     1  UNL1       -0.0011
     12 C           3.7320    0.2500    0.0000 C.2     1  UNL1        0.0177
     13 C           5.4641    1.2500    0.0000 C.ar    1  UNL1       -0.0433
     14 C           3.7320   -1.7500    0.0000 C.ar    1  UNL1       -0.0436
     15 C           2.8660   -0.2500    0.0000 C.3     1  UNL1       -0.0144
     16 C           7.2125   -2.7846    0.0000 C.3     1  UNL1       -0.0125
     17 C           6.3301    1.7500    0.0000 C.ar    1  UNL1       -0.0583
     18 C           4.5981    1.7500    0.0000 C.ar    1  UNL1       -0.0583
     19 C           2.0000    0.2500    0.0000 C.3     1  UNL1       -0.0463
     20 C           2.8660   -1.2500    0.0000 C.ar    1  UNL1       -0.0583
     21 C           3.7320   -2.7500    0.0000 C.ar    1  UNL1       -0.0583
     22 C           2.0000    1.2500    0.0000 C.3     1  UNL1       -0.0331
     23 C           2.8660    1.7500    0.0000 C.3     1  UNL1        0.0396
     24 C           6.3301    2.7500    0.0000 C.ar    1  UNL1       -0.0615
     25 C           4.5981    2.7500    0.0000 C.ar    1  UNL1       -0.0615
     26 C           2.0000   -1.7500    0.0000 C.ar    1  UNL1       -0.0615
     27 C           2.8660   -3.2500    0.0000 C.ar    1  UNL1       -0.0615
     28 C           5.4641    3.2500    0.0000 C.ar    1  UNL1       -0.0617
     29 C           2.0000   -2.7500    0.0000 C.ar    1  UNL1       -0.0617
     30 H           6.3236    0.6000    0.0000 H       1  UNL1        0.0322
     31 H           6.3236   -2.1000    0.0000 H       1  UNL1        0.0465
     32 H           4.7280    0.6750    0.0000 H       1  UNL1        0.0358
     33 H           5.3342   -0.6750    0.0000 H       1  UNL1        0.0372
     34 H           4.5981   -2.1000    0.0000 H       1  UNL1        0.0356
     35 H           5.0656   -2.2250    0.0000 H       1  UNL1        0.0286
     36 H           5.8626   -2.2250    0.0000 H       1  UNL1        0.0286
     37 H           7.6177    0.7637    0.0000 H       1  UNL1        0.0269
     38 H           6.8195    0.7544    0.0000 H       1  UNL1        0.0269
     39 H           8.7410   -0.3353    0.0000 H       1  UNL1        0.0278
     40 H           8.3392    0.3545    0.0000 H       1  UNL1        0.0278
     41 H           8.3392   -1.8545    0.0000 H       1  UNL1        0.0426
     42 H           8.7410   -1.1647    0.0000 H       1  UNL1        0.0426
     43 H           2.4675   -0.7249    0.0000 H       1  UNL1        0.0325
     44 H           3.2646   -0.7249    0.0000 H       1  UNL1        0.0325
     45 H           6.5926   -2.7774    0.0000 H       1  UNL1        0.0391
     46 H           7.2053   -3.4046    0.0000 H       1  UNL1        0.0391
     47 H           7.8325   -2.7918    0.0000 H       1  UNL1        0.0391
     48 H           6.8671    1.4400    0.0000 H       1  UNL1        0.0620
     49 H           4.0611    1.4400    0.0000 H       1  UNL1        0.0620
     50 H           1.3894    0.3577    0.0000 H       1  UNL1        0.0269
     51 H           1.7880   -0.3326    0.0000 H       1  UNL1        0.0269
     52 H           2.8660   -0.6300    0.0000 H       1  UNL1        0.0620
     53 H           4.2690   -3.0600    0.0000 H       1  UNL1        0.0620
     54 H           1.7880    1.8326    0.0000 H       1  UNL1        0.0283
     55 H           1.3894    1.1423    0.0000 H       1  UNL1        0.0283
     56 H           3.2646    2.2250    0.0000 H       1  UNL1        0.0508
     57 H           2.4675    2.2250    0.0000 H       1  UNL1        0.0508
     58 H           6.8671    3.0600    0.0000 H       1  UNL1        0.0618
     59 H           4.0611    3.0600    0.0000 H       1  UNL1        0.0618
     60 H           1.4631   -1.4400    0.0000 H       1  UNL1        0.0618
     61 H           2.8660   -3.8700    0.0000 H       1  UNL1        0.0618
     62 H           5.4641    3.8700    0.0000 H       1  UNL1        0.0618
     63 H           1.4631   -3.0600    0.0000 H       1  UNL1        0.0618
@<TRIPOS>BOND
     1     1     4    1
     2     1    11    1
     3     1    16    1
     4     2    12    2
     5     2    23    1
     6     3     4    1
     7     3     5    1
     8     3     9    1
     9     3    30    1
    10     4     8    1
    11     4    31    1
    12     5     6    1
    13     5    13    1
    14     5    32    1
    15     6     7    1
    16     6    12    1
    17     6    33    1
    18     7     8    1
    19     7    14    1
    20     7    34    1
    21     8    35    1
    22     8    36    1
    23     9    10    1
    24     9    37    1
    25     9    38    1
    26    10    11    1
    27    10    39    1
    28    10    40    1
    29    11    41    1
    30    11    42    1
    31    12    15    1
    32    13    17   ar
    33    13    18   ar
    34    14    20   ar
    35    14    21   ar
    36    15    19    1
    37    15    43    1
    38    15    44    1
    39    16    45    1
    40    16    46    1
    41    16    47    1
    42    17    24   ar
    43    17    48    1
    44    18    25   ar
    45    18    49    1
    46    19    22    1
    47    19    50    1
    48    19    51    1
    49    20    26   ar
    50    20    52    1
    51    21    27   ar
    52    21    53    1
    53    22    23    1
    54    22    54    1
    55    22    55    1
    56    23    56    1
    57    23    57    1
    58    24    28   ar
    59    24    58    1
    60    25    28   ar
    61    25    59    1
    62    26    29   ar
    63    26    60    1
    64    27    29   ar
    65    27    61    1
    66    28    62    1
    67    29    63    1
