@<TRIPOS>MOLECULE
IMPHY009940
 20 20 0 0 0
SMALL
GASTEIGER

@<TRIPOS>ATOM
      1 O           2.0000   -1.5000    0.0000 O.2     1  UNL1       -0.2974
      2 C           3.7320    0.5000    0.0000 C.3     1  UNL1       -0.0372
      3 C           4.5981    0.0000    0.0000 C.3     1  UNL1       -0.0497
      4 C           2.8660    0.0000    0.0000 C.3     1  UNL1        0.0084
      5 C           4.5981   -1.0000    0.0000 C.3     1  UNL1       -0.0461
      6 C           3.7320   -1.5000    0.0000 C.3     1  UNL1        0.0058
      7 C           2.8660   -1.0000    0.0000 C.2     1  UNL1        0.1336
      8 C           3.7320    1.5000    0.0000 C.3     1  UNL1       -0.0620
      9 H           4.2690    0.8100    0.0000 H       1  UNL1        0.0302
     10 H           5.2087   -0.1077    0.0000 H       1  UNL1        0.0268
     11 H           4.8101    0.5826    0.0000 H       1  UNL1        0.0268
     12 H           2.6540    0.5826    0.0000 H       1  UNL1        0.0344
     13 H           2.2554   -0.1077    0.0000 H       1  UNL1        0.0344
     14 H           4.8101   -1.5826    0.0000 H       1  UNL1        0.0269
     15 H           5.2087   -0.8923    0.0000 H       1  UNL1        0.0269
     16 H           3.3335   -1.9750    0.0000 H       1  UNL1        0.0342
     17 H           4.1306   -1.9750    0.0000 H       1  UNL1        0.0342
     18 H           4.3520    1.5000    0.0000 H       1  UNL1        0.0233
     19 H           3.7320    2.1200    0.0000 H       1  UNL1        0.0233
     20 H           3.1120    1.5000    0.0000 H       1  UNL1        0.0233
@<TRIPOS>BOND
     1     1     7    2
     2     2     3    1
     3     2     4    1
     4     2     8    1
     5     2     9    1
     6     3     5    1
     7     3    10    1
     8     3    11    1
     9     4     7    1
    10     4    12    1
    11     4    13    1
    12     5     6    1
    13     5    14    1
    14     5    15    1
    15     6     7    1
    16     6    16    1
    17     6    17    1
    18     8    18    1
    19     8    19    1
    20     8    20    1
