@<TRIPOS>MOLECULE
IMPHY006822
 34 35 0 0 0
SMALL
GASTEIGER

@<TRIPOS>ATOM
      1 O           7.5673    2.6283    0.0000 O.3     1  UNL1       -0.4677
      2 O           7.9244    0.9335    0.0000 O.2     1  UNL1       -0.2506
      3 N           4.6783   -2.2452    0.0000 N.ar    1  UNL1       -0.3604
      4 C           5.9674    0.5210    0.0000 C.3     1  UNL1       -0.0363
      5 C           4.9889    0.3148    0.0000 C.3     1  UNL1       -0.0250
      6 C           6.2781    1.4715    0.0000 C.3     1  UNL1        0.0539
      7 C           4.6783   -0.6357    0.0000 C.ar    1  UNL1       -0.0223
      8 C           3.7320   -0.9404    0.0000 C.ar    1  UNL1        0.0028
      9 C           3.7320   -1.9404    0.0000 C.ar    1  UNL1        0.0467
     10 C           5.2619   -1.4404    0.0000 C.ar    1  UNL1        0.0059
     11 C           5.6103    2.2158    0.0000 C.3     1  UNL1       -0.0523
     12 C           7.2566    1.6778    0.0000 C.2     1  UNL1        0.3097
     13 C           2.8660   -0.4404    0.0000 C.ar    1  UNL1       -0.0523
     14 C           2.8660   -2.4404    0.0000 C.ar    1  UNL1       -0.0378
     15 C           2.0000   -0.9404    0.0000 C.ar    1  UNL1       -0.0611
     16 C           2.0000   -1.9404    0.0000 C.ar    1  UNL1       -0.0598
     17 C           8.5458    2.8345    0.0000 C.3     1  UNL1        0.0817
     18 H           5.9880   -0.0986    0.0000 H       1  UNL1        0.0276
     19 H           6.5812    0.4337    0.0000 H       1  UNL1        0.0276
     20 H           4.9684    0.9345    0.0000 H       1  UNL1        0.0314
     21 H           4.3751    0.4022    0.0000 H       1  UNL1        0.0314
     22 H           5.6714    1.3437    0.0000 H       1  UNL1        0.0411
     23 H           5.8819   -1.4404    0.0000 H       1  UNL1        0.0810
     24 H           6.0717    2.6299    0.0000 H       1  UNL1        0.0238
     25 H           5.1962    2.6773    0.0000 H       1  UNL1        0.0238
     26 H           5.1488    1.8018    0.0000 H       1  UNL1        0.0238
     27 H           4.8709   -2.8345    0.0000 H       1  UNL1        0.1653
     28 H           2.8660    0.1796    0.0000 H       1  UNL1        0.0624
     29 H           2.8660   -3.0604    0.0000 H       1  UNL1        0.0638
     30 H           1.4631   -0.6304    0.0000 H       1  UNL1        0.0618
     31 H           1.4631   -2.2504    0.0000 H       1  UNL1        0.0618
     32 H           8.6736    2.2278    0.0000 H       1  UNL1        0.0661
     33 H           9.1524    2.9624    0.0000 H       1  UNL1        0.0661
     34 H           8.4179    3.4412    0.0000 H       1  UNL1        0.0661
@<TRIPOS>BOND
     1     1    12    1
     2     1    17    1
     3     2    12    2
     4     3     9   ar
     5     3    10   ar
     6     3    27    1
     7     4     5    1
     8     4     6    1
     9     4    18    1
    10     4    19    1
    11     5     7    1
    12     5    20    1
    13     5    21    1
    14     6    11    1
    15     6    12    1
    16     6    22    1
    17     7     8   ar
    18     7    10   ar
    19     8     9   ar
    20     8    13   ar
    21     9    14   ar
    22    10    23    1
    23    11    24    1
    24    11    25    1
    25    11    26    1
    26    13    15   ar
    27    13    28    1
    28    14    16   ar
    29    14    29    1
    30    15    16   ar
    31    15    30    1
    32    16    31    1
    33    17    32    1
    34    17    33    1
    35    17    34    1
