@<TRIPOS>MOLECULE
IMPHY015888
 40 39 0 0 0
SMALL
GASTEIGER

@<TRIPOS>ATOM
      1 F           5.3301    0.0670    0.0000 F       1  UNL1       -0.1803
      2 F           7.3301    0.0670    0.0000 F       1  UNL1       -0.1803
      3 F           7.6962    0.7010    0.0000 F       1  UNL1       -0.1803
      4 F           6.6962    2.4330    0.0000 F       1  UNL1       -0.1803
      5 F           4.9641    0.7010    0.0000 F       1  UNL1       -0.1803
      6 F           5.9641    2.4330    0.0000 F       1  UNL1       -0.1803
      7 F           5.3301   -0.9330    0.0000 F       1  UNL1       -0.1904
      8 F           7.3301   -0.9330    0.0000 F       1  UNL1       -0.1904
      9 F           8.5622    1.2010    0.0000 F       1  UNL1       -0.1904
     10 F           7.5622    2.9330    0.0000 F       1  UNL1       -0.1904
     11 F           4.0981    1.2010    0.0000 F       1  UNL1       -0.1904
     12 F           5.0981    2.9330    0.0000 F       1  UNL1       -0.1904
     13 F           5.3301   -1.9330    0.0000 F       1  UNL1       -0.1888
     14 F           7.3301   -1.9330    0.0000 F       1  UNL1       -0.1888
     15 F           9.4282    1.7010    0.0000 F       1  UNL1       -0.1888
     16 F           8.4282    3.4330    0.0000 F       1  UNL1       -0.1888
     17 F           3.2320    1.7010    0.0000 F       1  UNL1       -0.1888
     18 F           4.2320    3.4330    0.0000 F       1  UNL1       -0.1888
     19 F           6.3301   -3.9330    0.0000 F       1  UNL1       -0.1648
     20 F           5.3301   -2.9330    0.0000 F       1  UNL1       -0.1648
     21 F           7.3301   -2.9330    0.0000 F       1  UNL1       -0.1648
     22 F          10.6603    3.5670    0.0000 F       1  UNL1       -0.1648
     23 F          10.2942    2.2010    0.0000 F       1  UNL1       -0.1648
     24 F           9.2942    3.9330    0.0000 F       1  UNL1       -0.1648
     25 F           2.0000    3.5670    0.0000 F       1  UNL1       -0.1648
     26 F           2.3660    2.2010    0.0000 F       1  UNL1       -0.1648
     27 F           3.3660    3.9330    0.0000 F       1  UNL1       -0.1648
     28 N           6.3301    1.0670    0.0000 N.3     1  UNL1       -0.1070
     29 C           6.3301    0.0670    0.0000 C.3     1  UNL1        0.3835
     30 C           7.1962    1.5670    0.0000 C.3     1  UNL1        0.3835
     31 C           5.4641    1.5670    0.0000 C.3     1  UNL1        0.3835
     32 C           6.3301   -0.9330    0.0000 C.3     1  UNL1        0.3953
     33 C           8.0622    2.0670    0.0000 C.3     1  UNL1        0.3953
     34 C           4.5981    2.0670    0.0000 C.3     1  UNL1        0.3953
     35 C           6.3301   -1.9330    0.0000 C.3     1  UNL1        0.4100
     36 C           8.9282    2.5670    0.0000 C.3     1  UNL1        0.4100
     37 C           3.7320    2.5670    0.0000 C.3     1  UNL1        0.4100
     38 C           6.3301   -2.9330    0.0000 C.3     1  UNL1        0.4604
     39 C           9.7942    3.0670    0.0000 C.3     1  UNL1        0.4604
     40 C           2.8660    3.0670    0.0000 C.3     1  UNL1        0.4604
@<TRIPOS>BOND
     1     1    29    1
     2     2    29    1
     3     3    30    1
     4     4    30    1
     5     5    31    1
     6     6    31    1
     7     7    32    1
     8     8    32    1
     9     9    33    1
    10    10    33    1
    11    11    34    1
    12    12    34    1
    13    13    35    1
    14    14    35    1
    15    15    36    1
    16    16    36    1
    17    17    37    1
    18    18    37    1
    19    19    38    1
    20    20    38    1
    21    21    38    1
    22    22    39    1
    23    23    39    1
    24    24    39    1
    25    25    40    1
    26    26    40    1
    27    27    40    1
    28    28    29    1
    29    28    30    1
    30    28    31    1
    31    29    32    1
    32    30    33    1
    33    31    34    1
    34    32    35    1
    35    33    36    1
    36    34    37    1
    37    35    38    1
    38    36    39    1
    39    37    40    1
