@<TRIPOS>MOLECULE
IMPHY005398
 51 52 0 0 0
SMALL
GASTEIGER

@<TRIPOS>ATOM
      1 O           3.4030   -2.3100    0.0000 O.2     1  UNL1       -0.2918
      2 O           2.5369   -3.8100    0.0000 O.3     1  UNL1       -0.5059
      3 O           6.0010   -3.8100    0.0000 O.3     1  UNL1       -0.5059
      4 O          11.1972    5.1900    0.0000 O.3     1  UNL1       -0.5068
      5 C           6.8671    0.6900    0.0000 C.3     1  UNL1       -0.0530
      6 C           6.0010    0.1900    0.0000 C.3     1  UNL1       -0.0530
      7 C           6.8671    1.6900    0.0000 C.3     1  UNL1       -0.0528
      8 C           6.0010   -0.8100    0.0000 C.3     1  UNL1       -0.0527
      9 C           7.7331    2.1900    0.0000 C.3     1  UNL1       -0.0491
     10 C           5.1350   -1.3100    0.0000 C.3     1  UNL1       -0.0460
     11 C           7.7331    3.1900    0.0000 C.3     1  UNL1       -0.0277
     12 C           5.1350   -2.3100    0.0000 C.3     1  UNL1        0.0107
     13 C           8.5991    3.6900    0.0000 C.ar    1  UNL1       -0.0471
     14 C           4.2690   -2.8100    0.0000 C.2     1  UNL1        0.1702
     15 C           4.2690   -3.8100    0.0000 C.ar    1  UNL1        0.1000
     16 C           9.4651    3.1900    0.0000 C.ar    1  UNL1       -0.0551
     17 C           8.5991    4.6900    0.0000 C.ar    1  UNL1       -0.0551
     18 C          10.3312    3.6900    0.0000 C.ar    1  UNL1       -0.0199
     19 C           9.4651    5.1900    0.0000 C.ar    1  UNL1       -0.0199
     20 C           3.4030   -4.3100    0.0000 C.ar    1  UNL1        0.1308
     21 C           5.1350   -4.3100    0.0000 C.ar    1  UNL1        0.1308
     22 C          10.3312    4.6900    0.0000 C.ar    1  UNL1        0.1169
     23 C           3.4030   -5.3100    0.0000 C.ar    1  UNL1       -0.0192
     24 C           5.1350   -5.3100    0.0000 C.ar    1  UNL1       -0.0192
     25 C           4.2690   -5.8100    0.0000 C.ar    1  UNL1       -0.0548
     26 H           7.0791    0.1074    0.0000 H       1  UNL1        0.0265
     27 H           7.4776    0.7977    0.0000 H       1  UNL1        0.0265
     28 H           5.7890    0.7726    0.0000 H       1  UNL1        0.0265
     29 H           5.3905    0.0823    0.0000 H       1  UNL1        0.0265
     30 H           6.6550    2.2726    0.0000 H       1  UNL1        0.0265
     31 H           6.2565    1.5823    0.0000 H       1  UNL1        0.0265
     32 H           6.2131   -1.3926    0.0000 H       1  UNL1        0.0265
     33 H           6.6116   -0.7023    0.0000 H       1  UNL1        0.0265
     34 H           7.9451    1.6074    0.0000 H       1  UNL1        0.0268
     35 H           8.3437    2.2977    0.0000 H       1  UNL1        0.0268
     36 H           4.9230   -0.7274    0.0000 H       1  UNL1        0.0269
     37 H           4.5244   -1.4177    0.0000 H       1  UNL1        0.0269
     38 H           7.5210    3.7726    0.0000 H       1  UNL1        0.0313
     39 H           7.1225    3.0823    0.0000 H       1  UNL1        0.0313
     40 H           5.3471   -2.8926    0.0000 H       1  UNL1        0.0345
     41 H           5.7456   -2.2023    0.0000 H       1  UNL1        0.0345
     42 H           9.4651    2.5700    0.0000 H       1  UNL1        0.0621
     43 H           8.0622    5.0000    0.0000 H       1  UNL1        0.0621
     44 H          10.8681    3.3800    0.0000 H       1  UNL1        0.0654
     45 H           9.4651    5.8100    0.0000 H       1  UNL1        0.0654
     46 H           2.8660   -5.6200    0.0000 H       1  UNL1        0.0654
     47 H           5.6720   -5.6200    0.0000 H       1  UNL1        0.0654
     48 H           4.2690   -6.4300    0.0000 H       1  UNL1        0.0620
     49 H           2.0000   -4.1200    0.0000 H       1  UNL1        0.2922
     50 H           6.5380   -4.1200    0.0000 H       1  UNL1        0.2922
     51 H          11.1972    5.8100    0.0000 H       1  UNL1        0.2921
@<TRIPOS>BOND
     1     1    14    2
     2     2    20    1
     3     2    49    1
     4     3    21    1
     5     3    50    1
     6     4    22    1
     7     4    51    1
     8     5     6    1
     9     5     7    1
    10     5    26    1
    11     5    27    1
    12     6     8    1
    13     6    28    1
    14     6    29    1
    15     7     9    1
    16     7    30    1
    17     7    31    1
    18     8    10    1
    19     8    32    1
    20     8    33    1
    21     9    11    1
    22     9    34    1
    23     9    35    1
    24    10    12    1
    25    10    36    1
    26    10    37    1
    27    11    13    1
    28    11    38    1
    29    11    39    1
    30    12    14    1
    31    12    40    1
    32    12    41    1
    33    13    16   ar
    34    13    17   ar
    35    14    15    1
    36    15    20   ar
    37    15    21   ar
    38    16    18   ar
    39    16    42    1
    40    17    19   ar
    41    17    43    1
    42    18    22   ar
    43    18    44    1
    44    19    22   ar
    45    19    45    1
    46    20    23   ar
    47    21    24   ar
    48    23    25   ar
    49    23    46    1
    50    24    25   ar
    51    24    47    1
    52    25    48    1
