@<TRIPOS>MOLECULE
IMPHY008924
 27 29 0 0 0
SMALL
GASTEIGER
****
Created with ChemWriter - http://chemwriter.com
@<TRIPOS>ATOM
      1 C           1.1155   -4.1810    0.0000 C.3     1  UNL1        0.0218
      2 C           2.9202   -1.4572    0.0000 C.3     1  UNL1       -0.0012
      3 C           0.0674   -3.9227    0.0000 C.2     1  UNL1       -0.0646
      4 C          -2.0653    0.8205    0.0000 C.3     1  UNL1        0.0481
      5 C          -3.1173   -2.3309    0.0000 C.3     1  UNL1        0.0630
      6 C          -3.0946    0.4952    0.0000 C.3     1  UNL1        0.0950
      7 C          -3.7448   -1.4525    0.0000 C.3     1  UNL1        0.0942
      8 C           0.4088   -2.5153    0.0000 C.3     1  UNL1        0.0306
      9 C          -0.7260    0.1482    0.0000 C.3     1  UNL1        0.2319
     10 C           0.8048   -1.8890    0.0000 C.3     1  UNL1        0.0177
     11 C          -0.2330   -2.8858    0.0000 C.2     1  UNL1        0.0416
     12 C          -1.4378   -0.0579    0.0000 C.2     1  UNL1        0.0130
     13 C          -2.0880   -2.0056    0.0000 C.3     1  UNL1        0.1501
     14 C          -2.0793   -0.9261    0.0000 C.2     1  UNL1        0.0533
     15 C           0.8645   -1.1504    0.0000 C.3     1  UNL1        0.1939
     16 C          -0.9734   -2.9157    0.0000 C.2     1  UNL1        0.3361
     17 C           0.5740   -0.4687    0.0000 C.2     1  UNL1        0.3409
     18 N          -3.1033   -0.5843    0.0000 N.pl3   1  UNL1       -0.3083
     19 O           1.7006   -0.4677    0.0000 O.3     1  UNL1       -0.2188
     20 O          -1.1893   -3.9733    0.0000 O.2     1  UNL1       -0.2453
     21 O           1.4370    0.1798    0.0000 O.2     1  UNL1       -0.2477
     22 O           0.0000    0.0000    0.0000 O.3     1  UNL1       -0.4424
     23 O          -1.6429   -2.5980    0.0000 O.3     1  UNL1       -0.4514
     24 H          -0.6804   -4.7012    0.0000 H       1  UNL1        0.0583
     25 H           1.5207   -2.6970    0.0000 H       1  UNL1        0.0347
     26 H          -1.0488   -2.2977    0.0000 H       1  UNL1        0.0805
     27 H           1.8738   -1.5332    0.0000 H       1  UNL1        0.0749
@<TRIPOS>BOND
     1     1     3    1
     2     2    10    1
     3     3    24    1
     4     3    11    2
     5     4     6    1
     6     4    12    1
     7     5     7    1
     8     5    13    1
     9     6    18    1
    10     7    18    1
    11     8    10    1
    12     8    11    1
    13     9    12    1
    14     9    22    1
    15    10    25    1
    16    10    15    1
    17    11    16    1
    18    12    14    2
    19    13    26    1
    20    13    14    1
    21    13    23    1
    22    14    18    1
    23    15    27    1
    24    15    17    1
    25    15    19    1
    26    16    20    2
    27    16    23    1
    28    17    21    2
    29    17    22    1
