@<TRIPOS>MOLECULE
IMPHY007303
 47 50 0 0 0
SMALL
GASTEIGER

@<TRIPOS>ATOM
      1 O           8.1923    0.6987    0.0000 O.3     1  UNL1       -0.3609
      2 O           9.0680   -1.7979    0.0000 O.3     1  UNL1       -0.3862
      3 O          10.7961   -0.7912    0.0000 O.3     1  UNL1       -0.3865
      4 O          10.7884    1.2088    0.0000 O.3     1  UNL1       -0.3865
      5 O           9.9166    2.7054    0.0000 O.3     1  UNL1       -0.3924
      6 O           6.4144    0.7092    0.0000 O.3     1  UNL1       -0.5056
      7 O           8.1962   -2.3495    0.0000 O.3     1  UNL1       -0.5063
      8 O           4.6660    0.6746    0.0000 O.2     1  UNL1       -0.2865
      9 O           4.6660   -3.3254    0.0000 O.2     1  UNL1       -0.2866
     10 C           9.0641   -0.7979    0.0000 C.3     1  UNL1        0.1139
     11 C           8.1962   -0.3012    0.0000 C.3     1  UNL1        0.1193
     12 C           9.9282   -0.2946    0.0000 C.3     1  UNL1        0.1121
     13 C           9.9243    0.7054    0.0000 C.3     1  UNL1        0.1117
     14 C           9.0564    1.2021    0.0000 C.3     1  UNL1        0.1108
     15 C           7.3321   -0.8046    0.0000 C.ar    1  UNL1        0.0671
     16 C           9.0525    2.2021    0.0000 C.3     1  UNL1        0.0729
     17 C           6.4260   -0.2907    0.0000 C.ar    1  UNL1        0.1376
     18 C           7.3321   -1.8462    0.0000 C.ar    1  UNL1        0.1268
     19 C           5.5321   -0.8254    0.0000 C.ar    1  UNL1        0.0750
     20 C           5.5321   -1.8254    0.0000 C.ar    1  UNL1        0.0401
     21 C           6.4260   -2.3601    0.0000 C.ar    1  UNL1       -0.0081
     22 C           4.6660   -0.3254    0.0000 C.2     1  UNL1        0.1980
     23 C           4.6660   -2.3254    0.0000 C.2     1  UNL1        0.1947
     24 C           3.8000   -0.8254    0.0000 C.ar    1  UNL1        0.0332
     25 C           3.8000   -1.8254    0.0000 C.ar    1  UNL1        0.0331
     26 C           2.9061   -0.2907    0.0000 C.ar    1  UNL1       -0.0502
     27 C           2.9061   -2.3601    0.0000 C.ar    1  UNL1       -0.0502
     28 C           2.0000   -0.8046    0.0000 C.ar    1  UNL1       -0.0610
     29 C           2.0000   -1.8462    0.0000 C.ar    1  UNL1       -0.0610
     30 H           8.5284   -1.1100    0.0000 H       1  UNL1        0.0649
     31 H           7.6580    0.0067    0.0000 H       1  UNL1        0.0676
     32 H           9.9306   -0.9146    0.0000 H       1  UNL1        0.0647
     33 H           9.9220    1.3254    0.0000 H       1  UNL1        0.0647
     34 H           8.5183    1.5100    0.0000 H       1  UNL1        0.0646
     35 H           8.8382    2.7839    0.0000 H       1  UNL1        0.0584
     36 H           8.4424    2.0921    0.0000 H       1  UNL1        0.0584
     37 H           9.6061   -2.1058    0.0000 H       1  UNL1        0.2100
     38 H          11.3319   -0.4792    0.0000 H       1  UNL1        0.2100
     39 H          11.3266    0.9008    0.0000 H       1  UNL1        0.2100
     40 H           6.4188   -2.9800    0.0000 H       1  UNL1        0.0661
     41 H           9.9142    3.3254    0.0000 H       1  UNL1        0.2095
     42 H           5.8740    1.0130    0.0000 H       1  UNL1        0.2922
     43 H           8.1938   -2.9695    0.0000 H       1  UNL1        0.2921
     44 H           2.9132    0.3292    0.0000 H       1  UNL1        0.0625
     45 H           2.9132   -2.9800    0.0000 H       1  UNL1        0.0625
     46 H           1.4643   -0.4925    0.0000 H       1  UNL1        0.0618
     47 H           1.4643   -2.1583    0.0000 H       1  UNL1        0.0618
@<TRIPOS>BOND
     1     1    11    1
     2     1    14    1
     3    10     2    1
     4     2    37    1
     5    12     3    1
     6     3    38    1
     7    13     4    1
     8     4    39    1
     9     5    16    1
    10     5    41    1
    11     6    17    1
    12     6    42    1
    13     7    18    1
    14     7    43    1
    15     8    22    2
    16     9    23    2
    17    10    11    1
    18    10    12    1
    19    10    30    1
    20    11    15    1
    21    11    31    1
    22    12    13    1
    23    12    32    1
    24    13    14    1
    25    13    33    1
    26    14    16    1
    27    14    34    1
    28    15    17   ar
    29    15    18   ar
    30    16    35    1
    31    16    36    1
    32    17    19   ar
    33    18    21   ar
    34    19    20   ar
    35    19    22    1
    36    20    21   ar
    37    20    23    1
    38    21    40    1
    39    22    24    1
    40    23    25    1
    41    24    25   ar
    42    24    26   ar
    43    25    27   ar
    44    26    28   ar
    45    26    44    1
    46    27    29   ar
    47    27    45    1
    48    28    29   ar
    49    28    46    1
    50    29    47    1
