@<TRIPOS>MOLECULE
IMPHY009531
 140 147 0 0 0
SMALL
GASTEIGER

@<TRIPOS>ATOM
      1 O           6.7449   -4.0074    0.0000 O.3     1  UNL1       -0.3450
      2 O           8.6841   -4.3156    0.0000 O.3     1  UNL1       -0.3642
      3 O           3.8788    3.8524    0.0000 O.3     1  UNL1       -0.3454
      4 O           5.3814    4.7139    0.0000 O.3     1  UNL1       -0.3405
      5 O           6.0010   -8.0065    0.0000 O.3     1  UNL1       -0.3484
      6 O           2.8840    5.5874    0.0000 O.3     1  UNL1       -0.3841
      7 O           3.8891    7.3164    0.0000 O.3     1  UNL1       -0.3401
      8 O           5.8891    7.3105    0.0000 O.3     1  UNL1       -0.3865
      9 O           7.3865    6.4399    0.0000 O.3     1  UNL1       -0.3924
     10 O           4.2690   -8.0065    0.0000 O.3     1  UNL1       -0.3405
     11 O           5.3917    8.1780    0.0000 O.3     1  UNL1       -0.3405
     12 O           6.0010  -10.0065    0.0000 O.3     1  UNL1       -0.3841
     13 O           2.8943    9.0515    0.0000 O.3     1  UNL1       -0.3841
     14 O           4.2690  -11.0065    0.0000 O.3     1  UNL1       -0.3864
     15 O           2.5369  -10.0065    0.0000 O.3     1  UNL1       -0.3865
     16 O           3.8995   10.7805    0.0000 O.3     1  UNL1       -0.3864
     17 O           5.8995   10.7745    0.0000 O.3     1  UNL1       -0.3865
     18 O           2.5369   -7.0065    0.0000 O.3     1  UNL1       -0.3924
     19 O           7.3917    8.1720    0.0000 O.3     1  UNL1       -0.3924
     20 C           6.9358   -1.5381    0.0000 C.3     1  UNL1       -0.0233
     21 C           5.9358   -1.5390    0.0000 C.3     1  UNL1       -0.0298
     22 C           5.4350   -0.6734    0.0000 C.3     1  UNL1       -0.0343
     23 C           7.2413   -2.4840    0.0000 C.3     1  UNL1       -0.0015
     24 C           5.9343    0.1931    0.0000 C.3     1  UNL1       -0.0323
     25 C           5.4266    1.1027    0.0000 C.3     1  UNL1       -0.0260
     26 C           6.4371   -3.0684    0.0000 C.3     1  UNL1        0.0660
     27 C           5.6318   -2.4854    0.0000 C.3     1  UNL1       -0.0226
     28 C           7.4350   -0.6716    0.0000 C.3     1  UNL1       -0.0467
     29 C           6.9343    0.1940    0.0000 C.3     1  UNL1       -0.0489
     30 C           4.3850    1.1098    0.0000 C.3     1  UNL1       -0.0330
     31 C           8.0393   -3.0670    0.0000 C.3     1  UNL1        0.0158
     32 C           4.3935   -0.6903    0.0000 C.3     1  UNL1       -0.0494
     33 C           3.8650    0.2073    0.0000 C.3     1  UNL1       -0.0494
     34 C           7.9358   -1.5372    0.0000 C.3     1  UNL1       -0.0590
     35 C           7.7331   -4.0065    0.0000 C.3     1  UNL1        0.1704
     36 C           5.9899    2.0300    0.0000 C.3     1  UNL1       -0.0448
     37 C           3.8345    2.0447    0.0000 C.3     1  UNL1       -0.0232
     38 C           6.4266    1.0958    0.0000 C.3     1  UNL1       -0.0590
     39 C           5.4612    2.9774    0.0000 C.3     1  UNL1       -0.0260
     40 C           4.3762    2.9848    0.0000 C.3     1  UNL1        0.0621
     41 C           8.9909   -2.7596    0.0000 C.3     1  UNL1       -0.0572
     42 C           7.7331   -5.0065    0.0000 C.3     1  UNL1        0.0018
     43 C           6.8671   -5.5065    0.0000 C.3     1  UNL1       -0.0435
     44 C           6.8671   -6.5065    0.0000 C.3     1  UNL1       -0.0201
     45 C           4.3814    4.7169    0.0000 C.3     1  UNL1        0.1882
     46 C           3.8839    5.5844    0.0000 C.3     1  UNL1        0.1345
     47 C           6.0010   -7.0065    0.0000 C.3     1  UNL1        0.0533
     48 C           7.7331   -7.0065    0.0000 C.3     1  UNL1       -0.0603
     49 C           4.3865    6.4489    0.0000 C.3     1  UNL1        0.1206
     50 C           5.8839    5.5784    0.0000 C.3     1  UNL1        0.1130
     51 C           5.3865    6.4459    0.0000 C.3     1  UNL1        0.1123
     52 C           6.8839    5.5754    0.0000 C.3     1  UNL1        0.0730
     53 C           5.1350   -8.5065    0.0000 C.3     1  UNL1        0.1879
     54 C           4.3917    8.1810    0.0000 C.3     1  UNL1        0.1884
     55 C           5.1350   -9.5065    0.0000 C.3     1  UNL1        0.1341
     56 C           3.8943    9.0485    0.0000 C.3     1  UNL1        0.1341
     57 C           4.2690  -10.0065    0.0000 C.3     1  UNL1        0.1141
     58 C           3.4030   -8.5065    0.0000 C.3     1  UNL1        0.1130
     59 C           3.4030   -9.5065    0.0000 C.3     1  UNL1        0.1119
     60 C           4.3969    9.9130    0.0000 C.3     1  UNL1        0.1141
     61 C           5.8943    9.0425    0.0000 C.3     1  UNL1        0.1130
     62 C           5.3969    9.9100    0.0000 C.3     1  UNL1        0.1119
     63 C           2.5369   -8.0065    0.0000 C.3     1  UNL1        0.0730
     64 C           6.8943    9.0395    0.0000 C.3     1  UNL1        0.0730
     65 H           5.3193   -1.6051    0.0000 H       1  UNL1        0.0310
     66 H           5.1296   -1.2129    0.0000 H       1  UNL1        0.0306
     67 H           7.7437   -2.1207    0.0000 H       1  UNL1        0.0335
     68 H           6.2447   -0.3436    0.0000 H       1  UNL1        0.0309
     69 H           5.9363   -3.4339    0.0000 H       1  UNL1        0.0600
     70 H           5.0647   -2.2349    0.0000 H       1  UNL1        0.0293
     71 H           5.3231   -3.0231    0.0000 H       1  UNL1        0.0293
     72 H           7.9103   -1.0698    0.0000 H       1  UNL1        0.0271
     73 H           7.9096   -0.2727    0.0000 H       1  UNL1        0.0271
     74 H           7.5167    0.4065    0.0000 H       1  UNL1        0.0268
     75 H           6.8261    0.8044    0.0000 H       1  UNL1        0.0268
     76 H           3.7650    1.1069    0.0000 H       1  UNL1        0.0307
     77 H           8.1376   -2.4548    0.0000 H       1  UNL1        0.0354
     78 H           3.8133   -0.9089    0.0000 H       1  UNL1        0.0268
     79 H           4.5096   -1.2994    0.0000 H       1  UNL1        0.0268
     80 H           3.3887    0.6042    0.0000 H       1  UNL1        0.0268
     81 H           3.3924   -0.1941    0.0000 H       1  UNL1        0.0268
     82 H           7.9363   -2.1572    0.0000 H       1  UNL1        0.0235
     83 H           8.5558   -1.5367    0.0000 H       1  UNL1        0.0235
     84 H           7.9352   -0.9172    0.0000 H       1  UNL1        0.0235
     85 H           6.4569    1.6222    0.0000 H       1  UNL1        0.0271
     86 H           6.4716    2.4203    0.0000 H       1  UNL1        0.0271
     87 H           3.3582    2.4416    0.0000 H       1  UNL1        0.0293
     88 H           3.3620    1.6434    0.0000 H       1  UNL1        0.0293
     89 H           6.4224    0.4758    0.0000 H       1  UNL1        0.0235
     90 H           7.0466    1.0916    0.0000 H       1  UNL1        0.0235
     91 H           6.4309    1.7158    0.0000 H       1  UNL1        0.0235
     92 H           6.0462    3.1825    0.0000 H       1  UNL1        0.0290
     93 H           5.3592    3.5890    0.0000 H       1  UNL1        0.0290
     94 H           3.7562    2.9855    0.0000 H       1  UNL1        0.0597
     95 H           9.1814   -3.3496    0.0000 H       1  UNL1        0.0234
     96 H           9.5808   -2.5690    0.0000 H       1  UNL1        0.0234
     97 H           8.8003   -2.1696    0.0000 H       1  UNL1        0.0234
     98 H           7.9451   -5.5891    0.0000 H       1  UNL1        0.0317
     99 H           8.3437   -4.8989    0.0000 H       1  UNL1        0.0317
    100 H           8.8130   -4.9220    0.0000 H       1  UNL1        0.2128
    101 H           6.6550   -4.9239    0.0000 H       1  UNL1        0.0270
    102 H           6.2565   -5.6142    0.0000 H       1  UNL1        0.0270
    103 H           6.8671   -7.1265    0.0000 H       1  UNL1        0.0320
    104 H           3.7614    4.7187    0.0000 H       1  UNL1        0.0937
    105 H           3.5756    6.1222    0.0000 H       1  UNL1        0.0671
    106 H           5.7890   -6.4239    0.0000 H       1  UNL1        0.0563
    107 H           5.3905   -7.1142    0.0000 H       1  UNL1        0.0563
    108 H           7.4231   -7.5435    0.0000 H       1  UNL1        0.0233
    109 H           8.2700   -7.3165    0.0000 H       1  UNL1        0.0233
    110 H           8.0431   -6.4696    0.0000 H       1  UNL1        0.0233
    111 H           4.6981    6.9849    0.0000 H       1  UNL1        0.0651
    112 H           6.1923    5.0406    0.0000 H       1  UNL1        0.0647
    113 H           6.0065    6.4441    0.0000 H       1  UNL1        0.0647
    114 H           2.5756    6.1252    0.0000 H       1  UNL1        0.2101
    115 H           6.7744    4.9652    0.0000 H       1  UNL1        0.0584
    116 H           7.4659    5.3616    0.0000 H       1  UNL1        0.0584
    117 H           5.1350   -7.8865    0.0000 H       1  UNL1        0.0937
    118 H           6.5091    7.3086    0.0000 H       1  UNL1        0.2100
    119 H           3.7717    8.1828    0.0000 H       1  UNL1        0.0938
    120 H           5.1350  -10.1265    0.0000 H       1  UNL1        0.0671
    121 H           8.0065    6.4381    0.0000 H       1  UNL1        0.2095
    122 H           3.5859    9.5863    0.0000 H       1  UNL1        0.0671
    123 H           3.7320  -10.3165    0.0000 H       1  UNL1        0.0648
    124 H           3.4030   -7.8865    0.0000 H       1  UNL1        0.0647
    125 H           3.4030  -10.1265    0.0000 H       1  UNL1        0.0647
    126 H           4.7085   10.4490    0.0000 H       1  UNL1        0.0648
    127 H           6.2027    8.5046    0.0000 H       1  UNL1        0.0647
    128 H           5.0885   10.4479    0.0000 H       1  UNL1        0.0647
    129 H           6.5380   -9.6965    0.0000 H       1  UNL1        0.2101
    130 H           1.9264   -7.8989    0.0000 H       1  UNL1        0.0584
    131 H           2.3249   -8.5891    0.0000 H       1  UNL1        0.0584
    132 H           2.5859    9.5893    0.0000 H       1  UNL1        0.2101
    133 H           3.7320  -11.3165    0.0000 H       1  UNL1        0.2100
    134 H           7.4775    9.2498    0.0000 H       1  UNL1        0.0584
    135 H           6.7884    9.6504    0.0000 H       1  UNL1        0.0584
    136 H           2.0000   -9.6965    0.0000 H       1  UNL1        0.2100
    137 H           4.2111   11.3165    0.0000 H       1  UNL1        0.2100
    138 H           6.5195   10.7727    0.0000 H       1  UNL1        0.2100
    139 H           2.0000   -6.6965    0.0000 H       1  UNL1        0.2095
    140 H           8.0117    8.1701    0.0000 H       1  UNL1        0.2095
@<TRIPOS>BOND
     1     1    26    1
     2     1    35    1
     3     2    35    1
     4     2   100    1
     5     3    40    1
     6     3    45    1
     7     4    45    1
     8     4    50    1
     9     5    47    1
    10     5    53    1
    11     6    46    1
    12     6   114    1
    13     7    49    1
    14     7    54    1
    15     8    51    1
    16     8   118    1
    17     9    52    1
    18     9   121    1
    19    10    53    1
    20    10    58    1
    21    11    54    1
    22    11    61    1
    23    12    55    1
    24    12   129    1
    25    13    56    1
    26    13   132    1
    27    14    57    1
    28    14   133    1
    29    15    59    1
    30    15   136    1
    31    16    60    1
    32    16   137    1
    33    17    62    1
    34    17   138    1
    35    18    63    1
    36    18   139    1
    37    19    64    1
    38    19   140    1
    39    20    21    1
    40    20    23    1
    41    20    28    1
    42    20    34    1
    43    21    22    1
    44    21    27    1
    45    21    65    1
    46    22    24    1
    47    22    32    1
    48    22    66    1
    49    23    26    1
    50    23    31    1
    51    23    67    1
    52    24    25    1
    53    24    29    1
    54    24    68    1
    55    25    30    1
    56    25    36    1
    57    25    38    1
    58    26    27    1
    59    26    69    1
    60    27    70    1
    61    27    71    1
    62    28    29    1
    63    28    72    1
    64    28    73    1
    65    29    74    1
    66    29    75    1
    67    30    33    1
    68    30    37    1
    69    30    76    1
    70    31    35    1
    71    31    41    1
    72    31    77    1
    73    32    33    1
    74    32    78    1
    75    32    79    1
    76    33    80    1
    77    33    81    1
    78    34    82    1
    79    34    83    1
    80    34    84    1
    81    35    42    1
    82    36    39    1
    83    36    85    1
    84    36    86    1
    85    37    40    1
    86    37    87    1
    87    37    88    1
    88    38    89    1
    89    38    90    1
    90    38    91    1
    91    39    40    1
    92    39    92    1
    93    39    93    1
    94    40    94    1
    95    41    95    1
    96    41    96    1
    97    41    97    1
    98    42    43    1
    99    42    98    1
   100    42    99    1
   101    43    44    1
   102    43   101    1
   103    43   102    1
   104    44    47    1
   105    44    48    1
   106    44   103    1
   107    45    46    1
   108    45   104    1
   109    46    49    1
   110    46   105    1
   111    47   106    1
   112    47   107    1
   113    48   108    1
   114    48   109    1
   115    48   110    1
   116    49    51    1
   117    49   111    1
   118    50    51    1
   119    50    52    1
   120    50   112    1
   121    51   113    1
   122    52   115    1
   123    52   116    1
   124    53    55    1
   125    53   117    1
   126    54    56    1
   127    54   119    1
   128    55    57    1
   129    55   120    1
   130    56    60    1
   131    56   122    1
   132    57    59    1
   133    57   123    1
   134    58    59    1
   135    58    63    1
   136    58   124    1
   137    59   125    1
   138    60    62    1
   139    60   126    1
   140    61    62    1
   141    61    64    1
   142    61   127    1
   143    62   128    1
   144    63   130    1
   145    63   131    1
   146    64   134    1
   147    64   135    1
