@<TRIPOS>MOLECULE
IMPHY010514
 96 102 0 0 0
SMALL
GASTEIGER

@<TRIPOS>ATOM
      1 O           6.1632   -1.2887    0.0000 O.3     1  UNL1       -0.4573
      2 O           7.6808   -2.4575    0.0000 O.3     1  UNL1       -0.3790
      3 O           9.5035    1.3043    0.0000 O.3     1  UNL1       -0.3791
      4 O           5.7870    1.0528    0.0000 O.3     1  UNL1       -0.4544
      5 O           7.3782    2.6162    0.0000 O.3     1  UNL1       -0.3823
      6 O           5.3858    1.7623    0.0000 O.3     1  UNL1       -0.3767
      7 O          11.2543   -0.9659    0.0000 O.3     1  UNL1       -0.3910
      8 O          10.3695   -2.9309    0.0000 O.3     1  UNL1       -0.3823
      9 O           4.4790   -0.8844    0.0000 O.2     1  UNL1       -0.2511
     10 O           4.7900   -0.3636    0.0000 O.2     1  UNL1       -0.2449
     11 O           1.6088    2.9349    0.0000 O.3     1  UNL1       -0.4951
     12 N          10.6988   -0.5247    0.0000 N.3     1  UNL1       -0.2978
     13 C           8.7521   -0.1295    0.0000 C.3     1  UNL1        0.0223
     14 C           8.7521   -0.9971    0.0000 C.3     1  UNL1        0.0067
     15 C           8.0738    0.4114    0.0000 C.3     1  UNL1       -0.0185
     16 C           9.7541   -0.2355    0.0000 C.3     1  UNL1        0.0279
     17 C           7.2280   -1.3450    0.0000 C.3     1  UNL1        0.0421
     18 C           7.2280    0.2184    0.0000 C.3     1  UNL1        0.0429
     19 C           6.8516   -0.5633    0.0000 C.3     1  UNL1        0.1291
     20 C           8.0738   -1.5380    0.0000 C.3     1  UNL1        0.0704
     21 C           9.5035   -1.4309    0.0000 C.3     1  UNL1        0.0386
     22 C           9.5035    0.3043    0.0000 C.3     1  UNL1        0.0683
     23 C           8.1516    1.2755    0.0000 C.3     1  UNL1       -0.0140
     24 C           7.3538    1.6165    0.0000 C.3     1  UNL1        0.1294
     25 C           6.7830    0.9631    0.0000 C.3     1  UNL1        0.1410
     26 C           6.2067   -0.2934    0.0000 C.3     1  UNL1        0.0171
     27 C          10.6988   -1.2766    0.0000 C.3     1  UNL1        0.0097
     28 C          10.2548   -0.9971    0.0000 C.3     1  UNL1        0.0668
     29 C           6.2067    1.1912    0.0000 C.3     1  UNL1        0.0941
     30 C          10.2548   -0.1295    0.0000 C.3     1  UNL1        0.0008
     31 C           9.5035   -2.4309    0.0000 C.3     1  UNL1        0.0568
     32 C          11.5027    0.0699    0.0000 C.3     1  UNL1       -0.0036
     33 C           8.2806   -3.2577    0.0000 C.3     1  UNL1        0.0368
     34 C           5.2044   -1.5727    0.0000 C.2     1  UNL1        0.3045
     35 C          12.4197   -0.3290    0.0000 C.3     1  UNL1       -0.0523
     36 C          10.3695    1.8043    0.0000 C.3     1  UNL1        0.0368
     37 C           4.8797    0.6324    0.0000 C.2     1  UNL1        0.3395
     38 C           5.4700    2.7587    0.0000 C.3     1  UNL1        0.0369
     39 C          10.3695   -3.9309    0.0000 C.3     1  UNL1        0.0365
     40 C           4.9710   -2.5451    0.0000 C.3     1  UNL1        0.0333
     41 C           4.0620    1.2080    0.0000 C.ar    1  UNL1        0.0592
     42 C           3.1546    0.7877    0.0000 C.ar    1  UNL1       -0.0443
     43 C           4.1516    2.2040    0.0000 C.ar    1  UNL1       -0.0443
     44 C           2.3369    1.3633    0.0000 C.ar    1  UNL1       -0.0192
     45 C           3.3339    2.7796    0.0000 C.ar    1  UNL1       -0.0192
     46 C           2.4265    2.3593    0.0000 C.ar    1  UNL1        0.1201
     47 C           1.6984    3.9309    0.0000 C.3     1  UNL1        0.0788
     48 H           8.8156   -1.8447    0.0000 H       1  UNL1        0.0340
     49 H           8.8554    0.7455    0.0000 H       1  UNL1        0.0314
     50 H           9.8780    0.3719    0.0000 H       1  UNL1        0.0474
     51 H           6.6980   -2.0095    0.0000 H       1  UNL1        0.0380
     52 H           6.3788    0.1802    0.0000 H       1  UNL1        0.0379
     53 H           8.2742   -2.1247    0.0000 H       1  UNL1        0.0603
     54 H           8.9665    0.6143    0.0000 H       1  UNL1        0.0603
     55 H           8.3343    1.8680    0.0000 H       1  UNL1        0.0298
     56 H           8.7599    1.1557    0.0000 H       1  UNL1        0.0298
     57 H           6.5522    1.5386    0.0000 H       1  UNL1        0.0768
     58 H           6.0447   -0.8918    0.0000 H       1  UNL1        0.0330
     59 H           5.5921   -0.2117    0.0000 H       1  UNL1        0.0330
     60 H          11.3182   -1.2501    0.0000 H       1  UNL1        0.0434
     61 H          10.7518   -1.8944    0.0000 H       1  UNL1        0.0434
     62 H          10.4246   -1.5934    0.0000 H       1  UNL1        0.0601
     63 H           6.2848    1.8062    0.0000 H       1  UNL1        0.0627
     64 H          10.4668    0.4531    0.0000 H       1  UNL1        0.0315
     65 H          10.8654   -0.2372    0.0000 H       1  UNL1        0.0315
     66 H           9.2914   -3.0135    0.0000 H       1  UNL1        0.0566
     67 H           8.8929   -2.3232    0.0000 H       1  UNL1        0.0566
     68 H          11.0531    0.4968    0.0000 H       1  UNL1        0.0424
     69 H          11.8450    0.5869    0.0000 H       1  UNL1        0.0424
     70 H           6.8490    2.9392    0.0000 H       1  UNL1        0.2104
     71 H          11.5809   -1.4929    0.0000 H       1  UNL1        0.2098
     72 H           8.7767   -2.8858    0.0000 H       1  UNL1        0.0524
     73 H           8.6525   -3.7538    0.0000 H       1  UNL1        0.0524
     74 H           7.7845   -3.6296    0.0000 H       1  UNL1        0.0524
     75 H          12.6671    0.2396    0.0000 H       1  UNL1        0.0242
     76 H          12.9883   -0.5763    0.0000 H       1  UNL1        0.0242
     77 H          12.1724   -0.8975    0.0000 H       1  UNL1        0.0242
     78 H          10.0595    2.3412    0.0000 H       1  UNL1        0.0524
     79 H          10.9064    2.1143    0.0000 H       1  UNL1        0.0524
     80 H          10.6795    1.2674    0.0000 H       1  UNL1        0.0524
     81 H           4.8522    2.8109    0.0000 H       1  UNL1        0.0524
     82 H           5.5221    3.3765    0.0000 H       1  UNL1        0.0524
     83 H           6.0878    2.7065    0.0000 H       1  UNL1        0.0524
     84 H          10.9895   -3.9309    0.0000 H       1  UNL1        0.0523
     85 H          10.3695   -4.5509    0.0000 H       1  UNL1        0.0523
     86 H           9.7495   -3.9309    0.0000 H       1  UNL1        0.0523
     87 H           5.5739   -2.6898    0.0000 H       1  UNL1        0.0342
     88 H           4.8263   -3.1480    0.0000 H       1  UNL1        0.0342
     89 H           4.3681   -2.4004    0.0000 H       1  UNL1        0.0342
     90 H           3.0990    0.1702    0.0000 H       1  UNL1        0.0627
     91 H           4.7142    2.4646    0.0000 H       1  UNL1        0.0627
     92 H           1.7743    1.1027    0.0000 H       1  UNL1        0.0654
     93 H           3.3894    3.3971    0.0000 H       1  UNL1        0.0654
     94 H           1.0809    3.9864    0.0000 H       1  UNL1        0.0660
     95 H           1.7540    4.5484    0.0000 H       1  UNL1        0.0660
     96 H           2.3159    3.8753    0.0000 H       1  UNL1        0.0660
@<TRIPOS>BOND
     1    19     1    1
     2     1    34    1
     3    20     2    1
     4     2    33    1
     5    22     3    1
     6     3    36    1
     7    25     4    1
     8     4    37    1
     9    24     5    1
    10     5    70    1
    11    29     6    1
    12     6    38    1
    13    28     7    1
    14     7    71    1
    15     8    31    1
    16     8    39    1
    17     9    34    2
    18    10    37    2
    19    11    46    1
    20    11    47    1
    21    12    16    1
    22    12    27    1
    23    12    32    1
    24    13    14    1
    25    13    15    1
    26    13    16    1
    27    13    22    1
    28    14    20    1
    29    14    21    1
    30    14    48    1
    31    15    18    1
    32    15    23    1
    33    15    49    1
    34    16    17    1
    35    16    50    1
    36    17    19    1
    37    17    20    1
    38    17    51    1
    39    18    19    1
    40    18    25    1
    41    18    52    1
    42    19    26    1
    43    20    53    1
    44    21    27    1
    45    21    28    1
    46    21    31    1
    47    22    30    1
    48    22    54    1
    49    23    24    1
    50    23    55    1
    51    23    56    1
    52    24    25    1
    53    24    29    1
    54    25    57    1
    55    26    29    1
    56    26    58    1
    57    26    59    1
    58    27    60    1
    59    27    61    1
    60    28    30    1
    61    28    62    1
    62    29    63    1
    63    30    64    1
    64    30    65    1
    65    31    66    1
    66    31    67    1
    67    32    35    1
    68    32    68    1
    69    32    69    1
    70    33    72    1
    71    33    73    1
    72    33    74    1
    73    34    40    1
    74    35    75    1
    75    35    76    1
    76    35    77    1
    77    36    78    1
    78    36    79    1
    79    36    80    1
    80    37    41    1
    81    38    81    1
    82    38    82    1
    83    38    83    1
    84    39    84    1
    85    39    85    1
    86    39    86    1
    87    40    87    1
    88    40    88    1
    89    40    89    1
    90    41    42   ar
    91    41    43   ar
    92    42    44   ar
    93    42    90    1
    94    43    45   ar
    95    43    91    1
    96    44    46   ar
    97    44    92    1
    98    45    46   ar
    99    45    93    1
   100    47    94    1
   101    47    95    1
   102    47    96    1
