@<TRIPOS>MOLECULE
IMPHY006714
 116 124 0 0 0
SMALL
GASTEIGER

@<TRIPOS>ATOM
      1 O           6.5188   -4.3614    0.0000 O.3     1  UNL1       -0.4570
      2 O           7.7863   -2.4067    0.0000 O.3     1  UNL1       -0.3733
      3 O           8.5294   -3.0758    0.0000 O.3     1  UNL1       -0.4658
      4 O           8.3216   -4.0539    0.0000 O.2     1  UNL1       -0.2474
      5 O           7.8887    2.0836    0.0000 O.3     1  UNL1       -0.4947
      6 O           7.8060   -5.5204    0.0000 O.2     1  UNL1       -0.2512
      7 O           4.6368    1.7120    0.0000 O.3     1  UNL1       -0.4670
      8 O           6.2520    0.8890    0.0000 O.2     1  UNL1       -0.2494
      9 N           4.0924   -2.1327    0.0000 N.3     1  UNL1       -0.2939
     10 N           7.1718   -1.1321    0.0000 N.pl3   1  UNL1       -0.3252
     11 N           4.5124    2.4727    0.0000 N.ar    1  UNL1       -0.3565
     12 N           7.2448    5.1947    0.0000 N.3     1  UNL1       -0.3015
     13 C           5.6321   -1.6324    0.0000 C.3     1  UNL1        0.0369
     14 C           5.0066   -2.3271    0.0000 C.3     1  UNL1        0.0348
     15 C           5.2955   -3.2160    0.0000 C.3     1  UNL1        0.0453
     16 C           6.5464   -1.8268    0.0000 C.3     1  UNL1        0.0772
     17 C           6.8352   -2.7157    0.0000 C.3     1  UNL1        0.2195
     18 C           5.2470   -0.5968    0.0000 C.3     1  UNL1       -0.0272
     19 C           6.2098   -3.4104    0.0000 C.3     1  UNL1        0.1542
     20 C           5.9687   -0.0488    0.0000 C.ar    1  UNL1       -0.0162
     21 C           3.8035   -1.2438    0.0000 C.3     1  UNL1        0.0005
     22 C           5.6045   -4.1671    0.0000 C.3     1  UNL1       -0.0418
     23 C           6.8830   -0.2432    0.0000 C.ar    1  UNL1        0.0372
     24 C           4.6700   -3.9107    0.0000 C.2     1  UNL1       -0.0755
     25 C           3.4669   -2.8274    0.0000 C.3     1  UNL1        0.0175
     26 C           3.7558   -3.7163    0.0000 C.2     1  UNL1       -0.0733
     27 C           7.5784   -3.3849    0.0000 C.2     1  UNL1        0.3446
     28 C           5.6799    0.8401    0.0000 C.ar    1  UNL1       -0.0481
     29 C           8.1229   -0.8231    0.0000 C.3     1  UNL1        0.0011
     30 C           7.5084    0.4514    0.0000 C.ar    1  UNL1        0.0017
     31 C           4.9354   -4.9102    0.0000 C.3     1  UNL1       -0.0643
     32 C           6.3053    1.5348    0.0000 C.ar    1  UNL1        0.0172
     33 C           7.2196    1.3404    0.0000 C.ar    1  UNL1        0.1265
     34 C           6.1661    2.5250    0.0000 C.3     1  UNL1        0.1360
     35 C           6.8278   -5.3125    0.0000 C.2     1  UNL1        0.3043
     36 C           7.1564    2.6642    0.0000 C.3     1  UNL1       -0.0235
     37 C           5.3181    3.0550    0.0000 C.ar    1  UNL1        0.0418
     38 C           7.8255    3.4073    0.0000 C.3     1  UNL1       -0.0263
     39 C           5.6362    1.6770    0.0000 C.2     1  UNL1        0.3235
     40 C           6.1587   -6.0556    0.0000 C.3     1  UNL1        0.0332
     41 C           9.2726   -3.7450    0.0000 C.3     1  UNL1        0.0818
     42 C           8.7780    3.7687    0.0000 C.3     1  UNL1       -0.0450
     43 C           7.8604    4.4067    0.0000 C.3     1  UNL1        0.0018
     44 C           5.0091    4.0060    0.0000 C.ar    1  UNL1       -0.0165
     45 C           8.9737    4.7685    0.0000 C.3     1  UNL1       -0.0282
     46 C           8.2278    5.4623    0.0000 C.3     1  UNL1        0.0017
     47 C           5.3837    4.9332    0.0000 C.3     1  UNL1       -0.0126
     48 C           6.2666    5.4027    0.0000 C.3     1  UNL1        0.0030
     49 C           8.8669    1.8756    0.0000 C.3     1  UNL1        0.0788
     50 C           4.0150    4.0034    0.0000 C.ar    1  UNL1        0.0032
     51 C           3.7086    3.0577    0.0000 C.ar    1  UNL1        0.0470
     52 C           9.9248    5.0775    0.0000 C.3     1  UNL1       -0.0519
     53 C           3.3334    4.7829    0.0000 C.ar    1  UNL1       -0.0523
     54 C           2.6994    2.8260    0.0000 C.ar    1  UNL1       -0.0378
     55 C           4.1069    0.8639    0.0000 C.3     1  UNL1        0.0817
     56 C          10.1327    6.0556    0.0000 C.3     1  UNL1       -0.0650
     57 C           2.3191    4.5746    0.0000 C.ar    1  UNL1       -0.0611
     58 C           2.0000    3.5895    0.0000 C.ar    1  UNL1       -0.0598
     59 H           4.7440   -1.5187    0.0000 H       1  UNL1        0.0482
     60 H           7.3778   -2.0035    0.0000 H       1  UNL1        0.0544
     61 H           5.8233   -0.3681    0.0000 H       1  UNL1        0.0287
     62 H           5.0058   -0.0257    0.0000 H       1  UNL1        0.0287
     63 H           6.8162   -3.5393    0.0000 H       1  UNL1        0.0779
     64 H           3.5703   -0.6693    0.0000 H       1  UNL1        0.0427
     65 H           3.2211   -1.4563    0.0000 H       1  UNL1        0.0427
     66 H           5.9862   -4.6556    0.0000 H       1  UNL1        0.0273
     67 H           6.1519   -3.8760    0.0000 H       1  UNL1        0.0273
     68 H           4.8616   -4.5003    0.0000 H       1  UNL1        0.0577
     69 H           3.0852   -2.3388    0.0000 H       1  UNL1        0.0470
     70 H           2.9195   -3.1184    0.0000 H       1  UNL1        0.0470
     71 H           3.3409   -4.1771    0.0000 H       1  UNL1        0.0582
     72 H           5.0734    0.9690    0.0000 H       1  UNL1        0.0625
     73 H           8.2012   -1.9460    0.0000 H       1  UNL1        0.2111
     74 H           8.3145   -1.4128    0.0000 H       1  UNL1        0.0428
     75 H           8.7126   -0.6315    0.0000 H       1  UNL1        0.0428
     76 H           7.9313   -0.2335    0.0000 H       1  UNL1        0.0428
     77 H           8.1149    0.3225    0.0000 H       1  UNL1        0.0673
     78 H           4.4746   -4.4954    0.0000 H       1  UNL1        0.0230
     79 H           4.5205   -5.3710    0.0000 H       1  UNL1        0.0230
     80 H           5.3961   -5.3251    0.0000 H       1  UNL1        0.0230
     81 H           7.0630    2.0513    0.0000 H       1  UNL1        0.0286
     82 H           7.7168    2.3989    0.0000 H       1  UNL1        0.0286
     83 H           8.3056    2.7059    0.0000 H       1  UNL1        0.0314
     84 H           5.6979   -5.6408    0.0000 H       1  UNL1        0.0342
     85 H           5.7438   -6.5164    0.0000 H       1  UNL1        0.0342
     86 H           6.6194   -6.4705    0.0000 H       1  UNL1        0.0342
     87 H           8.8577   -4.2057    0.0000 H       1  UNL1        0.0661
     88 H           9.7333   -4.1598    0.0000 H       1  UNL1        0.0661
     89 H           9.6874   -3.2842    0.0000 H       1  UNL1        0.0661
     90 H           8.8874    3.1584    0.0000 H       1  UNL1        0.0271
     91 H           9.3980    3.7637    0.0000 H       1  UNL1        0.0271
     92 H           8.4478    4.2083    0.0000 H       1  UNL1        0.0429
     93 H           8.2190    4.9125    0.0000 H       1  UNL1        0.0429
     94 H           9.4378    4.3573    0.0000 H       1  UNL1        0.0313
     95 H           3.9749    2.1637    0.0000 H       1  UNL1        0.1656
     96 H           8.7264    5.8307    0.0000 H       1  UNL1        0.0429
     97 H           7.9575    6.0203    0.0000 H       1  UNL1        0.0429
     98 H           5.2618    5.5411    0.0000 H       1  UNL1        0.0326
     99 H           4.7664    4.9908    0.0000 H       1  UNL1        0.0326
    100 H           6.5640    5.9467    0.0000 H       1  UNL1        0.0430
    101 H           5.8308    5.8436    0.0000 H       1  UNL1        0.0430
    102 H           8.7380    1.2692    0.0000 H       1  UNL1        0.0660
    103 H           9.4733    1.7467    0.0000 H       1  UNL1        0.0660
    104 H           8.9958    2.4821    0.0000 H       1  UNL1        0.0660
    105 H          10.0111    4.4635    0.0000 H       1  UNL1        0.0266
    106 H          10.5444    5.0558    0.0000 H       1  UNL1        0.0266
    107 H           3.5313    5.3705    0.0000 H       1  UNL1        0.0624
    108 H           2.5152    2.2340    0.0000 H       1  UNL1        0.0638
    109 H           3.7784    0.3381    0.0000 H       1  UNL1        0.0661
    110 H           4.6327    0.5353    0.0000 H       1  UNL1        0.0661
    111 H           3.5811    1.1924    0.0000 H       1  UNL1        0.0661
    112 H          10.7392    5.9267    0.0000 H       1  UNL1        0.0230
    113 H          10.2616    6.6621    0.0000 H       1  UNL1        0.0230
    114 H           9.5263    6.1845    0.0000 H       1  UNL1        0.0230
    115 H           1.9056    5.0366    0.0000 H       1  UNL1        0.0618
    116 H           1.3942    3.4578    0.0000 H       1  UNL1        0.0618
@<TRIPOS>BOND
     1    19     1    1
     2     1    35    1
     3    17     2    1
     4     2    73    1
     5     3    27    1
     6     3    41    1
     7     4    27    2
     8     5    33    1
     9     5    49    1
    10     6    35    2
    11     7    39    1
    12     7    55    1
    13     8    39    2
    14     9    14    1
    15     9    21    1
    16     9    25    1
    17    10    16    1
    18    10    23    1
    19    10    29    1
    20    11    37   ar
    21    11    51   ar
    22    11    95    1
    23    12    43    1
    24    12    46    1
    25    12    48    1
    26    13    14    1
    27    13    16    1
    28    13    18    1
    29    13    20    1
    30    14    15    1
    31    14    59    1
    32    15    19    1
    33    15    22    1
    34    15    24    1
    35    16    17    1
    36    16    60    1
    37    17    19    1
    38    17    27    1
    39    18    21    1
    40    18    61    1
    41    18    62    1
    42    19    63    1
    43    20    23   ar
    44    20    28   ar
    45    21    64    1
    46    21    65    1
    47    22    31    1
    48    22    66    1
    49    22    67    1
    50    23    30   ar
    51    24    26    2
    52    24    68    1
    53    25    26    1
    54    25    69    1
    55    25    70    1
    56    26    71    1
    57    28    32   ar
    58    28    72    1
    59    29    74    1
    60    29    75    1
    61    29    76    1
    62    30    33   ar
    63    30    77    1
    64    31    78    1
    65    31    79    1
    66    31    80    1
    67    32    33   ar
    68    32    34    1
    69    34    36    1
    70    34    37    1
    71    34    39    1
    72    35    40    1
    73    36    38    1
    74    36    81    1
    75    36    82    1
    76    37    44   ar
    77    38    42    1
    78    38    43    1
    79    38    83    1
    80    40    84    1
    81    40    85    1
    82    40    86    1
    83    41    87    1
    84    41    88    1
    85    41    89    1
    86    42    45    1
    87    42    90    1
    88    42    91    1
    89    43    92    1
    90    43    93    1
    91    44    47    1
    92    44    50   ar
    93    45    46    1
    94    45    52    1
    95    45    94    1
    96    46    96    1
    97    46    97    1
    98    47    48    1
    99    47    98    1
   100    47    99    1
   101    48   100    1
   102    48   101    1
   103    49   102    1
   104    49   103    1
   105    49   104    1
   106    50    51   ar
   107    50    53   ar
   108    51    54   ar
   109    52    56    1
   110    52   105    1
   111    52   106    1
   112    53    57   ar
   113    53   107    1
   114    54    58   ar
   115    54   108    1
   116    55   109    1
   117    55   110    1
   118    55   111    1
   119    56   112    1
   120    56   113    1
   121    56   114    1
   122    57    58   ar
   123    57   115    1
   124    58   116    1
