@<TRIPOS>MOLECULE
IMPHY014197
 39 41 0 0 0
SMALL
GASTEIGER

@<TRIPOS>ATOM
      1 C           4.2387   -0.6922    0.0000 C.3     1  UNL1       -0.0163
      2 C           3.7382   -1.5675    0.0000 C.3     1  UNL1       -0.0289
      3 C           2.8650   -1.0633    0.0000 C.3     1  UNL1       -0.0248
      4 C           3.3727   -0.1922    0.0000 C.3     1  UNL1       -0.0111
      5 C           5.2195   -0.8991    0.0000 C.3     1  UNL1       -0.0374
      6 C           4.4139   -2.3078    0.0000 C.3     1  UNL1       -0.0489
      7 C           5.1048   -0.1922    0.0000 C.3     1  UNL1       -0.0426
      8 C           5.3275   -1.8956    0.0000 C.3     1  UNL1       -0.0496
      9 C           3.3727    0.8078    0.0000 C.2     1  UNL1       -0.0809
     10 C           2.3632   -1.9283    0.0000 C.3     1  UNL1       -0.0590
     11 C           2.0000   -0.5615    0.0000 C.3     1  UNL1       -0.0590
     12 C           5.1048    0.8078    0.0000 C.3     1  UNL1       -0.0315
     13 C           5.9610   -0.2282    0.0000 C.3     1  UNL1       -0.0619
     14 C           4.2387    1.3078    0.0000 C.2     1  UNL1       -0.0762
     15 C           4.2387    2.3078    0.0000 C.3     1  UNL1       -0.0438
     16 H           3.2055   -2.2298    0.0000 H       1  UNL1        0.0312
     17 H           2.5521    0.0295    0.0000 H       1  UNL1        0.0354
     18 H           5.7989   -1.1197    0.0000 H       1  UNL1        0.0304
     19 H           3.9145   -2.6753    0.0000 H       1  UNL1        0.0268
     20 H           4.7268   -2.8430    0.0000 H       1  UNL1        0.0268
     21 H           5.3168   -0.7748    0.0000 H       1  UNL1        0.0274
     22 H           5.7154   -0.0845    0.0000 H       1  UNL1        0.0274
     23 H           5.5217   -2.4844    0.0000 H       1  UNL1        0.0268
     24 H           5.9334   -1.7644    0.0000 H       1  UNL1        0.0268
     25 H           2.8358    1.1178    0.0000 H       1  UNL1        0.0575
     26 H           1.8269   -1.6172    0.0000 H       1  UNL1        0.0235
     27 H           2.0521   -2.4646    0.0000 H       1  UNL1        0.0235
     28 H           2.8995   -2.2394    0.0000 H       1  UNL1        0.0235
     29 H           2.3111   -0.0252    0.0000 H       1  UNL1        0.0235
     30 H           1.4637   -0.2504    0.0000 H       1  UNL1        0.0235
     31 H           1.6889   -1.0978    0.0000 H       1  UNL1        0.0235
     32 H           5.7154    0.7001    0.0000 H       1  UNL1        0.0310
     33 H           5.3168    1.3904    0.0000 H       1  UNL1        0.0310
     34 H           6.3770   -0.6880    0.0000 H       1  UNL1        0.0233
     35 H           6.4208    0.1878    0.0000 H       1  UNL1        0.0233
     36 H           5.5451    0.2316    0.0000 H       1  UNL1        0.0233
     37 H           4.8588    2.3078    0.0000 H       1  UNL1        0.0274
     38 H           4.2387    2.9278    0.0000 H       1  UNL1        0.0274
     39 H           3.6188    2.3078    0.0000 H       1  UNL1        0.0274
@<TRIPOS>BOND
     1     1     2    1
     2     1     4    1
     3     1     5    1
     4     1     7    1
     5     2     3    1
     6     2     6    1
     7     2    16    1
     8     3     4    1
     9     3    10    1
    10     3    11    1
    11     4     9    1
    12     4    17    1
    13     5     8    1
    14     5    13    1
    15     5    18    1
    16     6     8    1
    17     6    19    1
    18     6    20    1
    19     7    12    1
    20     7    21    1
    21     7    22    1
    22     8    23    1
    23     8    24    1
    24     9    14    2
    25     9    25    1
    26    10    26    1
    27    10    27    1
    28    10    28    1
    29    11    29    1
    30    11    30    1
    31    11    31    1
    32    12    14    1
    33    12    32    1
    34    12    33    1
    35    13    34    1
    36    13    35    1
    37    13    36    1
    38    14    15    1
    39    15    37    1
    40    15    38    1
    41    15    39    1
