@<TRIPOS>MOLECULE
IMPHY004726
 106 112 0 0 0
SMALL
GASTEIGER

@<TRIPOS>ATOM
      1 O           6.0010    0.4991    0.0000 O.3     1  UNL1       -0.3457
      2 O           8.4497    2.3355    0.0000 O.3     1  UNL1       -0.3365
      3 O          20.7535    0.0093    0.0000 O.3     1  UNL1       -0.3457
      4 O          19.2360    1.9844    0.0000 O.3     1  UNL1       -0.3365
      5 O           4.2690    0.4991    0.0000 O.3     1  UNL1       -0.3405
      6 O          22.4463   -0.3574    0.0000 O.3     1  UNL1       -0.3405
      7 O           6.1239    2.6682    0.0000 O.3     1  UNL1       -0.3812
      8 O          18.6504   -0.5361    0.0000 O.3     1  UNL1       -0.3812
      9 O           6.9603    0.2195    0.0000 O.3     1  UNL1       -0.3826
     10 O          17.2807    0.2895    0.0000 O.3     1  UNL1       -0.3826
     11 O           9.0884    0.6718    0.0000 O.3     1  UNL1       -0.4606
     12 O          17.5165    2.4523    0.0000 O.3     1  UNL1       -0.4608
     13 O           6.0010   -1.5009    0.0000 O.3     1  UNL1       -0.3841
     14 O          20.3301   -1.9454    0.0000 O.3     1  UNL1       -0.3841
     15 O           4.2690   -2.5009    0.0000 O.3     1  UNL1       -0.3864
     16 O          21.8112   -3.2894    0.0000 O.3     1  UNL1       -0.3864
     17 O           2.5369   -1.5009    0.0000 O.3     1  UNL1       -0.3865
     18 O          23.7157   -2.6787    0.0000 O.3     1  UNL1       -0.3865
     19 O           2.5369    1.4991    0.0000 O.3     1  UNL1       -0.3924
     20 O          24.3507    0.2533    0.0000 O.3     1  UNL1       -0.3924
     21 O          12.5436   -0.0518    0.0000 O.2     1  UNL1       -0.4618
     22 O          11.4772    3.2841    0.0000 O.3     1  UNL1       -0.5058
     23 O          13.1786    2.8802    0.0000 O.2     1  UNL1       -0.2863
     24 C           6.8671    1.9991    0.0000 C.3     1  UNL1        0.1440
     25 C          19.0606    0.3759    0.0000 C.3     1  UNL1        0.1440
     26 C           7.3671    1.1331    0.0000 C.3     1  UNL1        0.1500
     27 C          18.1487    0.7862    0.0000 C.3     1  UNL1        0.1500
     28 C           6.0010    1.4991    0.0000 C.3     1  UNL1        0.0843
     29 C           7.5362    2.7422    0.0000 C.3     1  UNL1        0.0853
     30 C          19.8012   -0.2961    0.0000 C.3     1  UNL1        0.0843
     31 C           5.1350   -0.0009    0.0000 C.3     1  UNL1        0.1880
     32 C          19.7326    1.1165    0.0000 C.3     1  UNL1        0.0853
     33 C           5.1350   -1.0009    0.0000 C.3     1  UNL1        0.1341
     34 C          21.4940   -0.6627    0.0000 C.3     1  UNL1        0.1880
     35 C           8.3452    1.3410    0.0000 C.3     1  UNL1        0.2308
     36 C          21.2823   -1.6401    0.0000 C.3     1  UNL1        0.1341
     37 C           4.2690   -1.5009    0.0000 C.3     1  UNL1        0.1141
     38 C          18.2570    1.7803    0.0000 C.3     1  UNL1        0.2308
     39 C          22.0229   -2.3120    0.0000 C.3     1  UNL1        0.1141
     40 C           3.4030   -1.0009    0.0000 C.3     1  UNL1        0.1119
     41 C          22.9751   -2.0067    0.0000 C.3     1  UNL1        0.1119
     42 C           3.4030   -0.0009    0.0000 C.3     1  UNL1        0.1130
     43 C          23.1868   -1.0294    0.0000 C.3     1  UNL1        0.1130
     44 C           2.5369    0.4991    0.0000 C.3     1  UNL1        0.0730
     45 C          24.1391   -0.7240    0.0000 C.3     1  UNL1        0.0730
     46 C          10.0394    0.9809    0.0000 C.ar    1  UNL1        0.1310
     47 C          16.5642    2.1469    0.0000 C.ar    1  UNL1        0.1240
     48 C          10.8162    0.2869    0.0000 C.ar    1  UNL1        0.0234
     49 C          10.2599    1.9989    0.0000 C.ar    1  UNL1        0.0226
     50 C          15.8237    2.8189    0.0000 C.ar    1  UNL1       -0.0192
     51 C          16.3526    1.1696    0.0000 C.ar    1  UNL1       -0.0192
     52 C          11.8030    0.6202    0.0000 C.ar    1  UNL1        0.1454
     53 C          12.0147    1.5975    0.0000 C.ar    1  UNL1        0.1060
     54 C          11.2542    2.3093    0.0000 C.ar    1  UNL1        0.1347
     55 C          14.6598    1.5362    0.0000 C.ar    1  UNL1       -0.0110
     56 C          14.8714    2.5136    0.0000 C.ar    1  UNL1       -0.0504
     57 C          15.4003    0.8642    0.0000 C.ar    1  UNL1       -0.0504
     58 C          13.7075    1.2309    0.0000 C.ar    1  UNL1        0.0644
     59 C          12.9670    1.9029    0.0000 C.ar    1  UNL1        0.2037
     60 C          13.4958    0.2535    0.0000 C.ar    1  UNL1        0.1038
     61 H           7.7572    0.6512    0.0000 H       1  UNL1        0.0687
     62 H          18.1787    0.1669    0.0000 H       1  UNL1        0.0687
     63 H           5.7890    2.0817    0.0000 H       1  UNL1        0.0591
     64 H           5.3905    1.3914    0.0000 H       1  UNL1        0.0591
     65 H           7.8462    3.2792    0.0000 H       1  UNL1        0.0591
     66 H           7.0346    3.1066    0.0000 H       1  UNL1        0.0591
     67 H          19.3112   -0.6759    0.0000 H       1  UNL1        0.0591
     68 H          20.0902   -0.8446    0.0000 H       1  UNL1        0.0591
     69 H           5.1350    0.6191    0.0000 H       1  UNL1        0.0937
     70 H          20.1457    0.6541    0.0000 H       1  UNL1        0.0591
     71 H          20.2356    1.4790    0.0000 H       1  UNL1        0.0591
     72 H           5.1350   -1.6209    0.0000 H       1  UNL1        0.0671
     73 H          21.6253   -0.0568    0.0000 H       1  UNL1        0.0937
     74 H           8.1847    0.7421    0.0000 H       1  UNL1        0.1084
     75 H          20.8232   -1.2234    0.0000 H       1  UNL1        0.0671
     76 H           3.7320   -1.8109    0.0000 H       1  UNL1        0.0648
     77 H          17.6774    1.5603    0.0000 H       1  UNL1        0.1084
     78 H          21.4325   -2.5014    0.0000 H       1  UNL1        0.0648
     79 H           2.8660   -0.6909    0.0000 H       1  UNL1        0.0647
     80 H          23.5655   -1.8174    0.0000 H       1  UNL1        0.0647
     81 H           3.4030    0.6191    0.0000 H       1  UNL1        0.0647
     82 H          23.3181   -0.4234    0.0000 H       1  UNL1        0.0647
     83 H           6.2528    3.2747    0.0000 H       1  UNL1        0.2105
     84 H           1.9264    0.6067    0.0000 H       1  UNL1        0.0584
     85 H           2.3249   -0.0835    0.0000 H       1  UNL1        0.0584
     86 H          19.0129   -1.0391    0.0000 H       1  UNL1        0.2105
     87 H          24.2230   -1.3383    0.0000 H       1  UNL1        0.0584
     88 H          24.7586   -0.7480    0.0000 H       1  UNL1        0.0584
     89 H           7.3248   -0.2821    0.0000 H       1  UNL1        0.2102
     90 H          17.2783   -0.3305    0.0000 H       1  UNL1        0.2102
     91 H           6.5380   -1.1909    0.0000 H       1  UNL1        0.2101
     92 H          20.1988   -2.5514    0.0000 H       1  UNL1        0.2101
     93 H           3.7320   -2.8109    0.0000 H       1  UNL1        0.2100
     94 H          22.2704   -3.7060    0.0000 H       1  UNL1        0.2100
     95 H           2.0000   -1.1909    0.0000 H       1  UNL1        0.2100
     96 H          24.3061   -2.4894    0.0000 H       1  UNL1        0.2100
     97 H           2.0000    1.8091    0.0000 H       1  UNL1        0.2095
     98 H          24.9411    0.4426    0.0000 H       1  UNL1        0.2095
     99 H          10.6919   -0.3206    0.0000 H       1  UNL1        0.0691
    100 H           9.8024    2.4173    0.0000 H       1  UNL1        0.0691
    101 H          15.9549    3.4248    0.0000 H       1  UNL1        0.0654
    102 H          16.8117    0.7529    0.0000 H       1  UNL1        0.0654
    103 H          14.4123    2.9302    0.0000 H       1  UNL1        0.0625
    104 H          15.2691    0.2583    0.0000 H       1  UNL1        0.0625
    105 H          13.9550   -0.1631    0.0000 H       1  UNL1        0.1037
    106 H          11.0229    3.7060    0.0000 H       1  UNL1        0.2922
@<TRIPOS>BOND
     1     1    28    1
     2    31     1    1
     3     2    29    1
     4     2    35    1
     5     3    30    1
     6    34     3    1
     7     4    32    1
     8     4    38    1
     9     5    31    1
    10     5    42    1
    11     6    34    1
    12     6    43    1
    13    24     7    1
    14     7    83    1
    15     8    25    1
    16     8    86    1
    17     9    26    1
    18     9    89    1
    19    27    10    1
    20    10    90    1
    21    35    11    1
    22    11    46    1
    23    38    12    1
    24    12    47    1
    25    13    33    1
    26    13    91    1
    27    14    36    1
    28    14    92    1
    29    15    37    1
    30    15    93    1
    31    39    16    1
    32    16    94    1
    33    40    17    1
    34    17    95    1
    35    41    18    1
    36    18    96    1
    37    19    44    1
    38    19    97    1
    39    20    45    1
    40    20    98    1
    41    21    52   ar
    42    21    60   ar
    43    22    54    1
    44    22   106    1
    45    23    59    2
    46    24    26    1
    47    24    28    1
    48    24    29    1
    49    25    27    1
    50    25    30    1
    51    25    32    1
    52    26    35    1
    53    26    61    1
    54    27    38    1
    55    27    62    1
    56    28    63    1
    57    28    64    1
    58    29    65    1
    59    29    66    1
    60    30    67    1
    61    30    68    1
    62    31    33    1
    63    31    69    1
    64    32    70    1
    65    32    71    1
    66    33    37    1
    67    33    72    1
    68    34    36    1
    69    34    73    1
    70    35    74    1
    71    36    39    1
    72    36    75    1
    73    37    40    1
    74    37    76    1
    75    38    77    1
    76    39    41    1
    77    39    78    1
    78    40    42    1
    79    40    79    1
    80    41    43    1
    81    41    80    1
    82    42    44    1
    83    42    81    1
    84    43    45    1
    85    43    82    1
    86    44    84    1
    87    44    85    1
    88    45    87    1
    89    45    88    1
    90    46    48   ar
    91    46    49   ar
    92    47    50   ar
    93    47    51   ar
    94    48    52   ar
    95    48    99    1
    96    49    54   ar
    97    49   100    1
    98    50    56   ar
    99    50   101    1
   100    51    57   ar
   101    51   102    1
   102    52    53   ar
   103    53    54   ar
   104    53    59   ar
   105    55    56   ar
   106    55    57   ar
   107    55    58    1
   108    56   103    1
   109    57   104    1
   110    58    59   ar
   111    58    60   ar
   112    60   105    1
