@<TRIPOS>MOLECULE
IMPHY014350
 72 76 0 0 0
SMALL
GASTEIGER

@<TRIPOS>ATOM
      1 O           5.1459   -2.6330    0.0000 O.3     1  UNL1       -0.3339
      2 O           5.1396    4.4396    0.0000 O.3     1  UNL1       -0.3339
      3 O           6.8779   -2.6330    0.0000 O.3     1  UNL1       -0.4532
      4 O           5.9998    2.9363    0.0000 O.3     1  UNL1       -0.4606
      5 O           5.1459   -5.6330    0.0000 O.3     1  UNL1       -0.3864
      6 O           3.4138   -4.6330    0.0000 O.3     1  UNL1       -0.3866
      7 O           2.5357    2.9496    0.0000 O.3     1  UNL1       -0.3864
      8 O           6.8779   -4.6330    0.0000 O.3     1  UNL1       -0.3829
      9 O           2.5434    4.9496    0.0000 O.3     1  UNL1       -0.3866
     10 O           4.2639    1.9430    0.0000 O.3     1  UNL1       -0.3829
     11 O           7.7440   -0.1330    0.0000 O.2     1  UNL1       -0.4507
     12 O           5.1459   -1.6329    0.0000 O.2     1  UNL1       -0.2830
     13 O           4.2417   -0.1361    0.0000 O.3     1  UNL1       -0.5058
     14 O           9.4760   -4.1330    0.0000 O.3     1  UNL1       -0.5033
     15 O          11.2081   -3.1330    0.0000 O.3     1  UNL1       -0.5033
     16 C           5.1459   -4.6330    0.0000 C.3     1  UNL1        0.1151
     17 C           4.2799   -4.1330    0.0000 C.3     1  UNL1        0.1096
     18 C           3.4037    3.4463    0.0000 C.3     1  UNL1        0.1151
     19 C           6.0119   -4.1330    0.0000 C.3     1  UNL1        0.1454
     20 C           3.4075    4.4463    0.0000 C.3     1  UNL1        0.1096
     21 C           4.2799   -3.1330    0.0000 C.3     1  UNL1        0.0883
     22 C           4.2678    2.9430    0.0000 C.3     1  UNL1        0.1454
     23 C           4.2755    4.9430    0.0000 C.3     1  UNL1        0.0883
     24 C           6.0119   -3.1330    0.0000 C.3     1  UNL1        0.2311
     25 C           5.1357    3.4396    0.0000 C.3     1  UNL1        0.2307
     26 C           3.4138   -2.6330    0.0000 C.3     1  UNL1       -0.0360
     27 C           4.2793    5.9430    0.0000 C.3     1  UNL1       -0.0360
     28 C           6.8779   -1.6329    0.0000 C.ar    1  UNL1        0.2138
     29 C           5.9960    1.9363    0.0000 C.ar    1  UNL1        0.1310
     30 C           6.0119   -0.1330    0.0000 C.ar    1  UNL1        0.1092
     31 C           6.0119   -1.1329    0.0000 C.ar    1  UNL1        0.2382
     32 C           7.7440   -1.1329    0.0000 C.ar    1  UNL1        0.1810
     33 C           6.8779    0.3670    0.0000 C.ar    1  UNL1        0.1465
     34 C           6.8940    1.4086    0.0000 C.ar    1  UNL1        0.0235
     35 C           5.0939    1.4155    0.0000 C.ar    1  UNL1        0.0226
     36 C           5.1019    0.3739    0.0000 C.ar    1  UNL1        0.1348
     37 C           8.6100   -1.6329    0.0000 C.ar    1  UNL1        0.0247
     38 C           8.6100   -2.6330    0.0000 C.ar    1  UNL1       -0.0057
     39 C           9.4760   -1.1329    0.0000 C.ar    1  UNL1       -0.0473
     40 C           9.4760   -3.1330    0.0000 C.ar    1  UNL1        0.1589
     41 C          10.3420   -1.6329    0.0000 C.ar    1  UNL1       -0.0159
     42 C          10.3420   -2.6330    0.0000 C.ar    1  UNL1        0.1583
     43 H           4.4934   -5.0097    0.0000 H       1  UNL1        0.0648
     44 H           4.2798   -4.8864    0.0000 H       1  UNL1        0.0646
     45 H           3.4008    2.6929    0.0000 H       1  UNL1        0.0648
     46 H           6.6644   -3.7563    0.0000 H       1  UNL1        0.0683
     47 H           3.4104    5.1997    0.0000 H       1  UNL1        0.0646
     48 H           4.2798   -2.3796    0.0000 H       1  UNL1        0.0621
     49 H           4.2707    3.6964    0.0000 H       1  UNL1        0.0683
     50 H           4.9294    5.3172    0.0000 H       1  UNL1        0.0621
     51 H           5.3594   -3.5097    0.0000 H       1  UNL1        0.1084
     52 H           5.1328    2.6862    0.0000 H       1  UNL1        0.1084
     53 H           3.4138   -1.8796    0.0000 H       1  UNL1        0.0255
     54 H           2.7613   -2.2563    0.0000 H       1  UNL1        0.0255
     55 H           2.7614   -3.0097    0.0000 H       1  UNL1        0.0255
     56 H           4.9332    6.3172    0.0000 H       1  UNL1        0.0255
     57 H           4.2822    6.6964    0.0000 H       1  UNL1        0.0255
     58 H           3.6283    6.3222    0.0000 H       1  UNL1        0.0255
     59 H           5.1459   -6.3864    0.0000 H       1  UNL1        0.2100
     60 H           2.7613   -5.0097    0.0000 H       1  UNL1        0.2100
     61 H           1.8818    2.5754    0.0000 H       1  UNL1        0.2100
     62 H           7.5304   -5.0097    0.0000 H       1  UNL1        0.2102
     63 H           1.8924    5.3288    0.0000 H       1  UNL1        0.2100
     64 H           4.2610    1.1896    0.0000 H       1  UNL1        0.2102
     65 H           7.5507    1.7778    0.0000 H       1  UNL1        0.0691
     66 H           4.4400    1.7897    0.0000 H       1  UNL1        0.0691
     67 H           7.9576   -3.0098    0.0000 H       1  UNL1        0.0662
     68 H           9.4760   -0.3795    0.0000 H       1  UNL1        0.0626
     69 H           3.5936   -0.5203    0.0000 H       1  UNL1        0.2922
     70 H          10.9944   -1.2561    0.0000 H       1  UNL1        0.0655
     71 H           9.4760   -4.8864    0.0000 H       1  UNL1        0.2923
     72 H          11.8606   -3.5097    0.0000 H       1  UNL1        0.2923
@<TRIPOS>BOND
     1     1    21    1
     2     1    24    1
     3     2    23    1
     4     2    25    1
     5     3    24    1
     6     3    28    1
     7     4    25    1
     8     4    29    1
     9     5    16    1
    10     5    59    1
    11     6    17    1
    12     6    60    1
    13     7    18    1
    14     7    61    1
    15     8    19    1
    16     8    62    1
    17     9    20    1
    18     9    63    1
    19    10    22    1
    20    10    64    1
    21    11    32   ar
    22    11    33   ar
    23    12    31    2
    24    13    36    1
    25    13    69    1
    26    14    40    1
    27    14    71    1
    28    15    42    1
    29    15    72    1
    30    16    17    1
    31    16    19    1
    32    16    43    1
    33    17    21    1
    34    17    44    1
    35    18    20    1
    36    18    22    1
    37    18    45    1
    38    19    24    1
    39    19    46    1
    40    20    23    1
    41    20    47    1
    42    21    26    1
    43    21    48    1
    44    22    25    1
    45    22    49    1
    46    23    27    1
    47    23    50    1
    48    24    51    1
    49    25    52    1
    50    26    53    1
    51    26    54    1
    52    26    55    1
    53    27    56    1
    54    27    57    1
    55    27    58    1
    56    28    31   ar
    57    28    32   ar
    58    29    34   ar
    59    29    35   ar
    60    30    31   ar
    61    30    33   ar
    62    30    36   ar
    63    32    37    1
    64    33    34   ar
    65    34    65    1
    66    35    36   ar
    67    35    66    1
    68    37    38   ar
    69    37    39   ar
    70    38    40   ar
    71    38    67    1
    72    39    41   ar
    73    39    68    1
    74    40    42   ar
    75    41    42   ar
    76    41    70    1
