@<TRIPOS>MOLECULE
IMPHY002862
 26 25 0 0 0
SMALL
GASTEIGER

@<TRIPOS>ATOM
      1 O           3.7690    1.0306    0.0000 O.3     1  UNL1       -0.3863
      2 O           2.5369    0.1645    0.0000 O.3     1  UNL1       -0.3922
      3 C           4.2690    0.1645    0.0000 C.3     1  UNL1        0.0890
      4 C           5.1350    0.6645    0.0000 C.3     1  UNL1       -0.0184
      5 C           4.7690   -0.7015    0.0000 C.3     1  UNL1       -0.0247
      6 C           3.4030   -0.3355    0.0000 C.3     1  UNL1        0.0729
      7 C           6.0010    0.1645    0.0000 C.3     1  UNL1       -0.0323
      8 C           4.2690   -1.5675    0.0000 C.3     1  UNL1       -0.0626
      9 C           6.8671    0.6645    0.0000 C.2     1  UNL1       -0.0910
     10 C           7.7331    0.1645    0.0000 C.2     1  UNL1       -0.1026
     11 H           5.5335    1.1395    0.0000 H       1  UNL1        0.0297
     12 H           4.7365    1.1395    0.0000 H       1  UNL1        0.0297
     13 H           5.2439   -1.1000    0.0000 H       1  UNL1        0.0291
     14 H           5.2439   -0.3030    0.0000 H       1  UNL1        0.0291
     15 H           3.0044   -0.8104    0.0000 H       1  UNL1        0.0586
     16 H           3.8015   -0.8104    0.0000 H       1  UNL1        0.0586
     17 H           5.6025   -0.3104    0.0000 H       1  UNL1        0.0308
     18 H           6.3996   -0.3104    0.0000 H       1  UNL1        0.0308
     19 H           3.7320   -1.2575    0.0000 H       1  UNL1        0.0231
     20 H           3.9590   -2.1044    0.0000 H       1  UNL1        0.0231
     21 H           4.8059   -1.8775    0.0000 H       1  UNL1        0.0231
     22 H           4.0790    1.5675    0.0000 H       1  UNL1        0.2103
     23 H           6.8671    1.2845    0.0000 H       1  UNL1        0.0566
     24 H           2.0000   -0.1455    0.0000 H       1  UNL1        0.2095
     25 H           7.7331   -0.4555    0.0000 H       1  UNL1        0.0532
     26 H           8.2700    0.4745    0.0000 H       1  UNL1        0.0532
@<TRIPOS>BOND
     1     1     3    1
     2     1    22    1
     3     2     6    1
     4     2    24    1
     5     3     4    1
     6     3     5    1
     7     3     6    1
     8     4     7    1
     9     4    11    1
    10     4    12    1
    11     5     8    1
    12     5    13    1
    13     5    14    1
    14     6    15    1
    15     6    16    1
    16     7     9    1
    17     7    17    1
    18     7    18    1
    19     8    19    1
    20     8    20    1
    21     8    21    1
    22     9    10    2
    23     9    23    1
    24    10    25    1
    25    10    26    1
