@<TRIPOS>MOLECULE
IMPHY007266
 30 30 0 0 0
SMALL
GASTEIGER

@<TRIPOS>ATOM
      1 O           4.3100    0.6340    0.0000 O.3     1  UNL1       -0.3748
      2 O           4.6760    3.0000    0.0000 O.3     1  UNL1       -0.3777
      3 O           2.3100    2.3660    0.0000 O.3     1  UNL1       -0.4785
      4 O           3.8100    3.2320    0.0000 O.2     1  UNL1       -0.2476
      5 O           6.4081    2.0000    0.0000 O.3     1  UNL1       -0.4787
      6 O           5.5420    0.5000    0.0000 O.2     1  UNL1       -0.2480
      7 O           2.9440   -3.0000    0.0000 O.3     1  UNL1       -0.5068
      8 C           3.8100    1.5000    0.0000 C.3     1  UNL1        0.2024
      9 C           2.9440    1.0000    0.0000 C.3     1  UNL1        0.0149
     10 C           4.6760    2.0000    0.0000 C.3     1  UNL1        0.1910
     11 C           2.9440    0.0000    0.0000 C.ar    1  UNL1       -0.0438
     12 C           3.3100    2.3660    0.0000 C.2     1  UNL1        0.3403
     13 C           5.5420    1.5000    0.0000 C.2     1  UNL1        0.3371
     14 C           2.0780   -0.5000    0.0000 C.ar    1  UNL1       -0.0550
     15 C           3.8100   -0.5000    0.0000 C.ar    1  UNL1       -0.0550
     16 C           2.0780   -1.5000    0.0000 C.ar    1  UNL1       -0.0199
     17 C           3.8100   -1.5000    0.0000 C.ar    1  UNL1       -0.0199
     18 C           2.9440   -2.0000    0.0000 C.ar    1  UNL1        0.1169
     19 H           2.7319    1.5826    0.0000 H       1  UNL1        0.0348
     20 H           2.3334    0.8923    0.0000 H       1  UNL1        0.0348
     21 H           5.2130    2.3100    0.0000 H       1  UNL1        0.0746
     22 H           4.9300    0.6340    0.0000 H       1  UNL1        0.2110
     23 H           1.5410   -0.1900    0.0000 H       1  UNL1        0.0621
     24 H           4.3469   -0.1900    0.0000 H       1  UNL1        0.0621
     25 H           5.2130    3.3100    0.0000 H       1  UNL1        0.2106
     26 H           1.5410   -1.8100    0.0000 H       1  UNL1        0.0654
     27 H           4.3469   -1.8100    0.0000 H       1  UNL1        0.0654
     28 H           2.0000    2.9030    0.0000 H       1  UNL1        0.2951
     29 H           6.9450    1.6900    0.0000 H       1  UNL1        0.2951
     30 H           2.4070   -3.3100    0.0000 H       1  UNL1        0.2921
@<TRIPOS>BOND
     1     8     1    1
     2     1    22    1
     3    10     2    1
     4     2    25    1
     5     3    12    1
     6     3    28    1
     7     4    12    2
     8     5    13    1
     9     5    29    1
    10     6    13    2
    11     7    18    1
    12     7    30    1
    13     8     9    1
    14     8    10    1
    15     8    12    1
    16     9    11    1
    17     9    19    1
    18     9    20    1
    19    10    13    1
    20    10    21    1
    21    11    14   ar
    22    11    15   ar
    23    14    16   ar
    24    14    23    1
    25    15    17   ar
    26    15    24    1
    27    16    18   ar
    28    16    26    1
    29    17    18   ar
    30    17    27    1
