@<TRIPOS>MOLECULE
IMPHY010855
 28 29 0 0 0
SMALL
GASTEIGER

@<TRIPOS>ATOM
      1 O           6.9473   -1.4597    0.0000 O.3     1  UNL1       -0.4838
      2 O           5.1350    1.3450    0.0000 O.3     1  UNL1       -0.5055
      3 O           2.5369   -0.1550    0.0000 O.3     1  UNL1       -0.4770
      4 O           3.4030    1.3450    0.0000 O.2     1  UNL1       -0.2450
      5 C           7.5309   -0.6550    0.0000 C.3     1  UNL1        0.1249
      6 C           6.9473    0.1497    0.0000 C.3     1  UNL1        0.0204
      7 C           6.0010   -0.1550    0.0000 C.ar    1  UNL1        0.0403
      8 C           6.0010   -1.1550    0.0000 C.ar    1  UNL1        0.1282
      9 C           8.5309   -0.6550    0.0000 C.2     1  UNL1       -0.0395
     10 C           5.1350    0.3450    0.0000 C.ar    1  UNL1        0.1376
     11 C           5.1350   -1.6550    0.0000 C.ar    1  UNL1       -0.0186
     12 C           4.2690   -0.1550    0.0000 C.ar    1  UNL1        0.1006
     13 C           4.2690   -1.1550    0.0000 C.ar    1  UNL1       -0.0407
     14 C           9.0309   -1.5210    0.0000 C.3     1  UNL1       -0.0406
     15 C           9.0309    0.2110    0.0000 C.2     1  UNL1       -0.0962
     16 C           3.4030    0.3450    0.0000 C.2     1  UNL1        0.3404
     17 H           7.9171   -1.4122    0.0000 H       1  UNL1        0.0784
     18 H           7.4846    0.4590    0.0000 H       1  UNL1        0.0355
     19 H           6.6962    0.7166    0.0000 H       1  UNL1        0.0355
     20 H           5.1350   -2.2750    0.0000 H       1  UNL1        0.0654
     21 H           3.7320   -1.4650    0.0000 H       1  UNL1        0.0628
     22 H           8.4939   -1.8310    0.0000 H       1  UNL1        0.0275
     23 H           9.3409   -2.0580    0.0000 H       1  UNL1        0.0275
     24 H           9.5678   -1.2110    0.0000 H       1  UNL1        0.0275
     25 H           9.6509    0.2110    0.0000 H       1  UNL1        0.0535
     26 H           8.7209    0.7480    0.0000 H       1  UNL1        0.0535
     27 H           5.6720    1.6550    0.0000 H       1  UNL1        0.2922
     28 H           2.0000    0.1550    0.0000 H       1  UNL1        0.2954
@<TRIPOS>BOND
     1     1     5    1
     2     1     8    1
     3     2    10    1
     4     2    27    1
     5     3    16    1
     6     3    28    1
     7     4    16    2
     8     5     6    1
     9     5     9    1
    10     5    17    1
    11     6     7    1
    12     6    18    1
    13     6    19    1
    14     7     8   ar
    15     7    10   ar
    16     8    11   ar
    17     9    14    1
    18     9    15    2
    19    10    12   ar
    20    11    13   ar
    21    11    20    1
    22    12    13   ar
    23    12    16    1
    24    13    21    1
    25    14    22    1
    26    14    23    1
    27    14    24    1
    28    15    25    1
    29    15    26    1
