@<TRIPOS>MOLECULE
IMPHY003393
 26 26 0 0 0
SMALL
GASTEIGER

@<TRIPOS>ATOM
      1 O           3.7320    2.0950    0.0000 O.3     1  UNL1       -0.3889
      2 O           2.0000    1.0950    0.0000 O.3     1  UNL1       -0.3846
      3 C           3.7320    1.0950    0.0000 C.3     1  UNL1        0.0849
      4 C           2.8660    0.5950    0.0000 C.3     1  UNL1        0.1060
      5 C           4.5981    0.5950    0.0000 C.3     1  UNL1       -0.0269
      6 C           2.8660   -0.4050    0.0000 C.ar    1  UNL1       -0.0167
      7 C           5.4641    1.0950    0.0000 C.3     1  UNL1       -0.0628
      8 C           2.0000   -0.9050    0.0000 C.ar    1  UNL1       -0.0560
      9 C           3.7320   -0.9050    0.0000 C.ar    1  UNL1       -0.0560
     10 C           2.0000   -1.9050    0.0000 C.ar    1  UNL1       -0.0614
     11 C           3.7320   -1.9050    0.0000 C.ar    1  UNL1       -0.0614
     12 C           2.8660   -2.4050    0.0000 C.ar    1  UNL1       -0.0617
     13 H           4.4682    1.5200    0.0000 H       1  UNL1        0.0622
     14 H           2.8660    1.4450    0.0000 H       1  UNL1        0.0669
     15 H           4.1996    0.1201    0.0000 H       1  UNL1        0.0288
     16 H           4.9966    0.1201    0.0000 H       1  UNL1        0.0288
     17 H           5.7741    0.5581    0.0000 H       1  UNL1        0.0231
     18 H           6.0010    1.4050    0.0000 H       1  UNL1        0.0231
     19 H           5.1541    1.6319    0.0000 H       1  UNL1        0.0231
     20 H           1.4631   -0.5950    0.0000 H       1  UNL1        0.0621
     21 H           4.2690   -0.5950    0.0000 H       1  UNL1        0.0621
     22 H           4.2690    2.4050    0.0000 H       1  UNL1        0.2099
     23 H           2.0000    1.7150    0.0000 H       1  UNL1        0.2103
     24 H           1.4631   -2.2150    0.0000 H       1  UNL1        0.0618
     25 H           4.2690   -2.2150    0.0000 H       1  UNL1        0.0618
     26 H           2.8660   -3.0250    0.0000 H       1  UNL1        0.0618
@<TRIPOS>BOND
     1     1     3    1
     2     1    22    1
     3     2     4    1
     4     2    23    1
     5     3     4    1
     6     3     5    1
     7     3    13    1
     8     4     6    1
     9     4    14    1
    10     5     7    1
    11     5    15    1
    12     5    16    1
    13     6     8   ar
    14     6     9   ar
    15     7    17    1
    16     7    18    1
    17     7    19    1
    18     8    10   ar
    19     8    20    1
    20     9    11   ar
    21     9    21    1
    22    10    12   ar
    23    10    24    1
    24    11    12   ar
    25    11    25    1
    26    12    26    1
