@<TRIPOS>MOLECULE
IMPHY004386
 27 27 0 0 0
SMALL
GASTEIGER

@<TRIPOS>ATOM
      1 O           2.8660   -1.8450    0.0000 O.3     1  UNL1       -0.4913
      2 O           6.3301   -1.8450    0.0000 O.3     1  UNL1       -0.4913
      3 O           4.5981   -2.8450    0.0000 O.3     1  UNL1       -0.5009
      4 O           6.3301    3.1550    0.0000 O.2     1  UNL1       -0.2963
      5 C           4.5981    0.1550    0.0000 C.ar    1  UNL1       -0.0178
      6 C           3.7320   -1.3450    0.0000 C.ar    1  UNL1        0.1655
      7 C           5.4641   -1.3450    0.0000 C.ar    1  UNL1        0.1655
      8 C           4.5981   -1.8450    0.0000 C.ar    1  UNL1        0.2010
      9 C           3.7320   -0.3450    0.0000 C.ar    1  UNL1       -0.0089
     10 C           5.4641   -0.3450    0.0000 C.ar    1  UNL1       -0.0089
     11 C           4.5981    1.1550    0.0000 C.2     1  UNL1       -0.0513
     12 C           5.4641    1.6550    0.0000 C.2     1  UNL1       -0.0219
     13 C           2.0000   -1.3450    0.0000 C.3     1  UNL1        0.0790
     14 C           7.1962   -1.3450    0.0000 C.3     1  UNL1        0.0790
     15 C           5.4641    2.6550    0.0000 C.2     1  UNL1        0.1431
     16 H           3.1951   -0.0350    0.0000 H       1  UNL1        0.0661
     17 H           6.0010   -0.0350    0.0000 H       1  UNL1        0.0661
     18 H           4.0611    1.4650    0.0000 H       1  UNL1        0.0624
     19 H           4.0611   -3.1550    0.0000 H       1  UNL1        0.2924
     20 H           6.0010    1.3450    0.0000 H       1  UNL1        0.0650
     21 H           2.3100   -0.8081    0.0000 H       1  UNL1        0.0660
     22 H           1.4631   -1.0350    0.0000 H       1  UNL1        0.0660
     23 H           1.6900   -1.8819    0.0000 H       1  UNL1        0.0660
     24 H           7.5062   -1.8819    0.0000 H       1  UNL1        0.0660
     25 H           7.7331   -1.0350    0.0000 H       1  UNL1        0.0660
     26 H           6.8862   -0.8081    0.0000 H       1  UNL1        0.0660
     27 H           4.9272    2.9650    0.0000 H       1  UNL1        0.1075
@<TRIPOS>BOND
     1     1     6    1
     2     1    13    1
     3     2     7    1
     4     2    14    1
     5     3     8    1
     6     3    19    1
     7     4    15    2
     8     5     9   ar
     9     5    10   ar
    10     5    11    1
    11     6     8   ar
    12     6     9   ar
    13     7     8   ar
    14     7    10   ar
    15     9    16    1
    16    10    17    1
    17    11    12    2
    18    11    18    1
    19    12    15    1
    20    12    20    1
    21    13    21    1
    22    13    22    1
    23    13    23    1
    24    14    24    1
    25    14    25    1
    26    14    26    1
    27    15    27    1
