@<TRIPOS>MOLECULE
IMPHY007581
 112 111 0 0 0
SMALL
GASTEIGER

@<TRIPOS>ATOM
      1 O          14.6613    0.2500    0.0000 O.3     1  UNL1       -0.4556
      2 O          12.0632   -0.2500    0.0000 O.3     1  UNL1       -0.4608
      3 O          15.5273   -1.2500    0.0000 O.2     1  UNL1       -0.2508
      4 O          11.1972    1.2500    0.0000 O.2     1  UNL1       -0.2509
      5 O          12.9292   -1.7500    0.0000 O.3     1  UNL1       -0.3912
      6 C          18.9914   -0.2500    0.0000 C.3     1  UNL1       -0.0530
      7 C           7.7331    0.2500    0.0000 C.3     1  UNL1       -0.0530
      8 C          18.1254    0.2500    0.0000 C.3     1  UNL1       -0.0526
      9 C          19.8574    0.2500    0.0000 C.3     1  UNL1       -0.0528
     10 C           8.5991   -0.2500    0.0000 C.3     1  UNL1       -0.0526
     11 C           6.8671   -0.2500    0.0000 C.3     1  UNL1       -0.0528
     12 C          17.2594   -0.2500    0.0000 C.3     1  UNL1       -0.0430
     13 C          20.7235   -0.2500    0.0000 C.3     1  UNL1       -0.0496
     14 C           9.4651    0.2500    0.0000 C.3     1  UNL1       -0.0430
     15 C           6.0010    0.2500    0.0000 C.3     1  UNL1       -0.0496
     16 C          16.3933    0.2500    0.0000 C.3     1  UNL1        0.0450
     17 C          21.5895    0.2500    0.0000 C.3     1  UNL1       -0.0348
     18 C          10.3312   -0.2500    0.0000 C.3     1  UNL1        0.0449
     19 C           5.1350   -0.2500    0.0000 C.3     1  UNL1       -0.0348
     20 C          13.7953   -0.2500    0.0000 C.3     1  UNL1        0.1597
     21 C          15.5273   -0.2500    0.0000 C.2     1  UNL1        0.3075
     22 C          11.1972    0.2500    0.0000 C.2     1  UNL1        0.3072
     23 C          22.4555   -0.2500    0.0000 C.2     1  UNL1       -0.0876
     24 C           4.2690    0.2500    0.0000 C.2     1  UNL1       -0.0876
     25 C          12.9292    0.2500    0.0000 C.3     1  UNL1        0.1315
     26 C          13.7953   -1.2500    0.0000 C.3     1  UNL1        0.0844
     27 C          23.3215    0.2500    0.0000 C.2     1  UNL1       -0.0842
     28 C           3.4030   -0.2500    0.0000 C.2     1  UNL1       -0.0842
     29 C          23.3215    1.2500    0.0000 C.3     1  UNL1       -0.0165
     30 C           3.4030   -1.2500    0.0000 C.3     1  UNL1       -0.0165
     31 C          23.3215    4.2500    0.0000 C.3     1  UNL1       -0.0496
     32 C           3.4030   -4.2500    0.0000 C.3     1  UNL1       -0.0496
     33 C          22.4555    4.7500    0.0000 C.3     1  UNL1       -0.0530
     34 C           4.2690   -4.7500    0.0000 C.3     1  UNL1       -0.0530
     35 C          23.3215    3.2500    0.0000 C.3     1  UNL1       -0.0348
     36 C           3.4030   -3.2500    0.0000 C.3     1  UNL1       -0.0348
     37 C          22.4555    5.7500    0.0000 C.3     1  UNL1       -0.0559
     38 C           4.2690   -5.7500    0.0000 C.3     1  UNL1       -0.0559
     39 C          24.1876    1.7500    0.0000 C.2     1  UNL1       -0.0842
     40 C           2.5369   -1.7500    0.0000 C.2     1  UNL1       -0.0842
     41 C          24.1876    2.7500    0.0000 C.2     1  UNL1       -0.0876
     42 C           2.5369   -2.7500    0.0000 C.2     1  UNL1       -0.0876
     43 C          21.5895    6.2500    0.0000 C.3     1  UNL1       -0.0653
     44 C           5.1350   -6.2500    0.0000 C.3     1  UNL1       -0.0653
     45 H          18.5929   -0.7249    0.0000 H       1  UNL1        0.0265
     46 H          19.3899   -0.7249    0.0000 H       1  UNL1        0.0265
     47 H           8.1316    0.7249    0.0000 H       1  UNL1        0.0265
     48 H           7.3346    0.7249    0.0000 H       1  UNL1        0.0265
     49 H          18.5239    0.7249    0.0000 H       1  UNL1        0.0265
     50 H          17.7269    0.7249    0.0000 H       1  UNL1        0.0265
     51 H          20.2560    0.7249    0.0000 H       1  UNL1        0.0265
     52 H          19.4589    0.7249    0.0000 H       1  UNL1        0.0265
     53 H           8.2006   -0.7249    0.0000 H       1  UNL1        0.0265
     54 H           8.9976   -0.7249    0.0000 H       1  UNL1        0.0265
     55 H           6.4685   -0.7249    0.0000 H       1  UNL1        0.0265
     56 H           7.2656   -0.7249    0.0000 H       1  UNL1        0.0265
     57 H          16.8608   -0.7249    0.0000 H       1  UNL1        0.0270
     58 H          17.6579   -0.7249    0.0000 H       1  UNL1        0.0270
     59 H          20.3249   -0.7249    0.0000 H       1  UNL1        0.0268
     60 H          21.1220   -0.7249    0.0000 H       1  UNL1        0.0268
     61 H           9.8637    0.7249    0.0000 H       1  UNL1        0.0270
     62 H           9.0666    0.7249    0.0000 H       1  UNL1        0.0270
     63 H           6.3996    0.7249    0.0000 H       1  UNL1        0.0268
     64 H           5.6025    0.7249    0.0000 H       1  UNL1        0.0268
     65 H          16.7919    0.7249    0.0000 H       1  UNL1        0.0377
     66 H          15.9948    0.7249    0.0000 H       1  UNL1        0.0377
     67 H          21.9880    0.7249    0.0000 H       1  UNL1        0.0307
     68 H          21.1910    0.7249    0.0000 H       1  UNL1        0.0307
     69 H           9.9326   -0.7249    0.0000 H       1  UNL1        0.0377
     70 H          10.7297   -0.7249    0.0000 H       1  UNL1        0.0377
     71 H           4.7365   -0.7249    0.0000 H       1  UNL1        0.0307
     72 H           5.5335   -0.7249    0.0000 H       1  UNL1        0.0307
     73 H          14.3322   -0.5600    0.0000 H       1  UNL1        0.0792
     74 H          22.4555   -0.8700    0.0000 H       1  UNL1        0.0569
     75 H           4.2690    0.8700    0.0000 H       1  UNL1        0.0569
     76 H          13.3278    0.7249    0.0000 H       1  UNL1        0.0736
     77 H          12.5307    0.7249    0.0000 H       1  UNL1        0.0736
     78 H          14.0073   -1.8326    0.0000 H       1  UNL1        0.0595
     79 H          14.4058   -1.1423    0.0000 H       1  UNL1        0.0595
     80 H          23.8585   -0.0600    0.0000 H       1  UNL1        0.0572
     81 H           2.8660    0.0600    0.0000 H       1  UNL1        0.0572
     82 H          23.1095    1.8326    0.0000 H       1  UNL1        0.0350
     83 H          22.7110    1.1423    0.0000 H       1  UNL1        0.0350
     84 H           3.6150   -1.8326    0.0000 H       1  UNL1        0.0350
     85 H           4.0135   -1.1423    0.0000 H       1  UNL1        0.0350
     86 H          23.9321    4.1423    0.0000 H       1  UNL1        0.0268
     87 H          23.5336    4.8326    0.0000 H       1  UNL1        0.0268
     88 H           2.7924   -4.1423    0.0000 H       1  UNL1        0.0268
     89 H           3.1909   -4.8326    0.0000 H       1  UNL1        0.0268
     90 H          21.8449    4.8577    0.0000 H       1  UNL1        0.0265
     91 H          22.2435    4.1674    0.0000 H       1  UNL1        0.0265
     92 H           4.8796   -4.8577    0.0000 H       1  UNL1        0.0265
     93 H           4.4810   -4.1674    0.0000 H       1  UNL1        0.0265
     94 H          22.7110    3.3577    0.0000 H       1  UNL1        0.0307
     95 H          23.1095    2.6674    0.0000 H       1  UNL1        0.0307
     96 H           4.0135   -3.3577    0.0000 H       1  UNL1        0.0307
     97 H           3.6150   -2.6674    0.0000 H       1  UNL1        0.0307
     98 H          23.0661    5.6423    0.0000 H       1  UNL1        0.0263
     99 H          22.6676    6.3326    0.0000 H       1  UNL1        0.0263
    100 H           3.6584   -5.6423    0.0000 H       1  UNL1        0.0263
    101 H           4.0569   -6.3326    0.0000 H       1  UNL1        0.0263
    102 H          24.7245    1.4400    0.0000 H       1  UNL1        0.0572
    103 H           2.0000   -1.4400    0.0000 H       1  UNL1        0.0572
    104 H          24.7245    3.0600    0.0000 H       1  UNL1        0.0569
    105 H           2.0000   -3.0600    0.0000 H       1  UNL1        0.0569
    106 H          12.9292   -2.3700    0.0000 H       1  UNL1        0.2096
    107 H          21.8995    6.7869    0.0000 H       1  UNL1        0.0230
    108 H          21.0526    6.5600    0.0000 H       1  UNL1        0.0230
    109 H          21.2795    5.7131    0.0000 H       1  UNL1        0.0230
    110 H           4.8250   -6.7869    0.0000 H       1  UNL1        0.0230
    111 H           5.6720   -6.5600    0.0000 H       1  UNL1        0.0230
    112 H           5.4450   -5.7131    0.0000 H       1  UNL1        0.0230
@<TRIPOS>BOND
     1    20     1    1
     2     1    21    1
     3     2    22    1
     4     2    25    1
     5     3    21    2
     6     4    22    2
     7     5    26    1
     8     5   106    1
     9     6     8    1
    10     6     9    1
    11     6    45    1
    12     6    46    1
    13     7    10    1
    14     7    11    1
    15     7    47    1
    16     7    48    1
    17     8    12    1
    18     8    49    1
    19     8    50    1
    20     9    13    1
    21     9    51    1
    22     9    52    1
    23    10    14    1
    24    10    53    1
    25    10    54    1
    26    11    15    1
    27    11    55    1
    28    11    56    1
    29    12    16    1
    30    12    57    1
    31    12    58    1
    32    13    17    1
    33    13    59    1
    34    13    60    1
    35    14    18    1
    36    14    61    1
    37    14    62    1
    38    15    19    1
    39    15    63    1
    40    15    64    1
    41    16    21    1
    42    16    65    1
    43    16    66    1
    44    17    23    1
    45    17    67    1
    46    17    68    1
    47    18    22    1
    48    18    69    1
    49    18    70    1
    50    19    24    1
    51    19    71    1
    52    19    72    1
    53    20    25    1
    54    20    26    1
    55    20    73    1
    56    23    27    2
    57    23    74    1
    58    24    28    2
    59    24    75    1
    60    25    76    1
    61    25    77    1
    62    26    78    1
    63    26    79    1
    64    27    29    1
    65    27    80    1
    66    28    30    1
    67    28    81    1
    68    29    39    1
    69    29    82    1
    70    29    83    1
    71    30    40    1
    72    30    84    1
    73    30    85    1
    74    31    33    1
    75    31    35    1
    76    31    86    1
    77    31    87    1
    78    32    34    1
    79    32    36    1
    80    32    88    1
    81    32    89    1
    82    33    37    1
    83    33    90    1
    84    33    91    1
    85    34    38    1
    86    34    92    1
    87    34    93    1
    88    35    41    1
    89    35    94    1
    90    35    95    1
    91    36    42    1
    92    36    96    1
    93    36    97    1
    94    37    43    1
    95    37    98    1
    96    37    99    1
    97    38    44    1
    98    38   100    1
    99    38   101    1
   100    39    41    2
   101    39   102    1
   102    40    42    2
   103    40   103    1
   104    41   104    1
   105    42   105    1
   106    43   107    1
   107    43   108    1
   108    43   109    1
   109    44   110    1
   110    44   111    1
   111    44   112    1
