@<TRIPOS>MOLECULE
IMPHY003419
 22 21 0 0 0
SMALL
GASTEIGER

@<TRIPOS>ATOM
      1 O           4.6350    0.6645    0.0000 O.3     1  UNL1       -0.3882
      2 O           2.5369   -0.7015    0.0000 O.3     1  UNL1       -0.3949
      3 O           7.7331    0.2985    0.0000 O.3     1  UNL1       -0.4805
      4 O           6.8671   -1.2015    0.0000 O.2     1  UNL1       -0.2509
      5 C           5.1350   -0.2015    0.0000 C.3     1  UNL1        0.0754
      6 C           4.2690   -0.7015    0.0000 C.3     1  UNL1       -0.0005
      7 C           6.0010    0.2985    0.0000 C.3     1  UNL1        0.0733
      8 C           5.6350   -1.0675    0.0000 C.3     1  UNL1       -0.0355
      9 C           3.4030   -0.2015    0.0000 C.3     1  UNL1        0.0468
     10 C           6.8671   -0.2015    0.0000 C.2     1  UNL1        0.3075
     11 H           3.8705   -1.1764    0.0000 H       1  UNL1        0.0315
     12 H           4.6675   -1.1764    0.0000 H       1  UNL1        0.0315
     13 H           6.3996    0.7735    0.0000 H       1  UNL1        0.0406
     14 H           5.6025    0.7735    0.0000 H       1  UNL1        0.0406
     15 H           5.0981   -1.3775    0.0000 H       1  UNL1        0.0257
     16 H           5.9450   -1.6044    0.0000 H       1  UNL1        0.0257
     17 H           6.1720   -0.7575    0.0000 H       1  UNL1        0.0257
     18 H           3.8015    0.2735    0.0000 H       1  UNL1        0.0558
     19 H           3.0044    0.2735    0.0000 H       1  UNL1        0.0558
     20 H           4.9450    1.2015    0.0000 H       1  UNL1        0.2102
     21 H           2.0000   -0.3915    0.0000 H       1  UNL1        0.2094
     22 H           8.2700   -0.0115    0.0000 H       1  UNL1        0.2951
@<TRIPOS>BOND
     1     5     1    1
     2     1    20    1
     3     2     9    1
     4     2    21    1
     5     3    10    1
     6     3    22    1
     7     4    10    2
     8     5     6    1
     9     5     7    1
    10     5     8    1
    11     6     9    1
    12     6    11    1
    13     6    12    1
    14     7    10    1
    15     7    13    1
    16     7    14    1
    17     8    15    1
    18     8    16    1
    19     8    17    1
    20     9    18    1
    21     9    19    1
