@<TRIPOS>MOLECULE
IMPHY014339
 24 25 0 0 0
SMALL
GASTEIGER

@<TRIPOS>ATOM
      1 N           3.5388   -0.9755    0.0000 N.3     1  UNL1       -0.2991
      2 C           3.5388    0.0245    0.0000 C.3     1  UNL1        0.0131
      3 C           2.5878    0.3335    0.0000 C.3     1  UNL1       -0.0271
      4 C           4.4851    0.3292    0.0000 C.3     1  UNL1       -0.0359
      5 C           2.0000   -0.4755    0.0000 C.3     1  UNL1       -0.0362
      6 C           2.5878   -1.2846    0.0000 C.3     1  UNL1       -0.0005
      7 C           4.4851   -1.2803    0.0000 C.3     1  UNL1       -0.0008
      8 C           5.0687   -0.4755    0.0000 C.3     1  UNL1       -0.0388
      9 C           2.2788    1.2846    0.0000 C.3     1  UNL1       -0.0610
     10 H           3.5396    0.6445    0.0000 H       1  UNL1        0.0465
     11 H           1.9754    0.4305    0.0000 H       1  UNL1        0.0314
     12 H           5.0224    0.6384    0.0000 H       1  UNL1        0.0281
     13 H           4.2340    0.8961    0.0000 H       1  UNL1        0.0281
     14 H           1.5392   -0.0607    0.0000 H       1  UNL1        0.0281
     15 H           1.5392   -0.8904    0.0000 H       1  UNL1        0.0281
     16 H           2.0508   -1.5946    0.0000 H       1  UNL1        0.0427
     17 H           2.8400   -1.8509    0.0000 H       1  UNL1        0.0427
     18 H           4.2340   -1.8472    0.0000 H       1  UNL1        0.0427
     19 H           5.0224   -1.5895    0.0000 H       1  UNL1        0.0427
     20 H           5.5295   -0.8903    0.0000 H       1  UNL1        0.0278
     21 H           5.5295   -0.0608    0.0000 H       1  UNL1        0.0278
     22 H           2.8684    1.4761    0.0000 H       1  UNL1        0.0233
     23 H           2.0872    1.8742    0.0000 H       1  UNL1        0.0233
     24 H           1.6891    1.0930    0.0000 H       1  UNL1        0.0233
@<TRIPOS>BOND
     1     1     2    1
     2     1     6    1
     3     1     7    1
     4     2     3    1
     5     2     4    1
     6     2    10    1
     7     3     5    1
     8     3     9    1
     9     3    11    1
    10     4     8    1
    11     4    12    1
    12     4    13    1
    13     5     6    1
    14     5    14    1
    15     5    15    1
    16     6    16    1
    17     6    17    1
    18     7     8    1
    19     7    18    1
    20     7    19    1
    21     8    20    1
    22     8    21    1
    23     9    22    1
    24     9    23    1
    25     9    24    1
