@<TRIPOS>MOLECULE
IMPHY000828
 52 54 0 0 0
SMALL
GASTEIGER

@<TRIPOS>ATOM
      1 O           6.6385   -0.4847    0.0000 O.3     1  UNL1       -0.4564
      2 O           6.0055    2.7238    0.0000 O.3     1  UNL1       -0.4573
      3 O           2.3784   -0.4490    0.0000 O.3     1  UNL1       -0.3911
      4 O           5.5413   -1.9721    0.0000 O.2     1  UNL1       -0.2966
      5 O           7.7453    3.0820    0.0000 O.2     1  UNL1       -0.2453
      6 O           8.3362   -0.1415    0.0000 O.2     1  UNL1       -0.2453
      7 C           4.9557   -0.2951    0.0000 C.3     1  UNL1        0.0692
      8 C           4.0547    0.1388    0.0000 C.3     1  UNL1        0.0036
      9 C           5.8566    0.1388    0.0000 C.3     1  UNL1        0.1261
     10 C           3.8322    1.1138    0.0000 C.3     1  UNL1       -0.0343
     11 C           6.0792    1.1138    0.0000 C.3     1  UNL1        0.0653
     12 C           3.3696   -0.5815    0.0000 C.3     1  UNL1        0.0660
     13 C           5.4557    1.8956    0.0000 C.3     1  UNL1        0.1140
     14 C           4.4557    1.8956    0.0000 C.3     1  UNL1       -0.0120
     15 C           4.8197   -1.2798    0.0000 C.2     1  UNL1        0.1455
     16 C           3.8414   -1.4564    0.0000 C.3     1  UNL1        0.0328
     17 C           5.8566   -0.7289    0.0000 C.3     1  UNL1       -0.0490
     18 C           2.8573    1.3363    0.0000 C.3     1  UNL1       -0.0619
     19 C           7.0089    1.4655    0.0000 C.2     1  UNL1        0.0396
     20 C           6.9635    2.4585    0.0000 C.2     1  UNL1        0.3354
     21 C           8.0022    1.5816    0.0000 C.2     1  UNL1       -0.0882
     22 C           7.5864   -0.8032    0.0000 C.2     1  UNL1        0.3349
     23 C           7.7846   -1.7833    0.0000 C.2     1  UNL1        0.0293
     24 C           7.0348   -2.4450    0.0000 C.3     1  UNL1       -0.0333
     25 C           8.7325   -2.1018    0.0000 C.2     1  UNL1       -0.0774
     26 C           8.9306   -3.0820    0.0000 C.3     1  UNL1       -0.0461
     27 H           3.2350    0.3639    0.0000 H       1  UNL1        0.0339
     28 H           6.4418    0.3436    0.0000 H       1  UNL1        0.0751
     29 H           3.6274    1.6990    0.0000 H       1  UNL1        0.0303
     30 H           6.7200    0.5553    0.0000 H       1  UNL1        0.0423
     31 H           3.1636    0.0033    0.0000 H       1  UNL1        0.0600
     32 H           5.0539    2.6446    0.0000 H       1  UNL1        0.0741
     33 H           4.5936    2.5000    0.0000 H       1  UNL1        0.0304
     34 H           3.8971    2.1646    0.0000 H       1  UNL1        0.0304
     35 H           3.2678   -1.6917    0.0000 H       1  UNL1        0.0367
     36 H           4.0151   -2.0516    0.0000 H       1  UNL1        0.0367
     37 H           5.5876   -1.2876    0.0000 H       1  UNL1        0.0240
     38 H           6.4152   -0.9980    0.0000 H       1  UNL1        0.0240
     39 H           6.1256   -0.1703    0.0000 H       1  UNL1        0.0240
     40 H           2.9952    1.9407    0.0000 H       1  UNL1        0.0233
     41 H           2.2528    1.4742    0.0000 H       1  UNL1        0.0233
     42 H           2.7193    0.7318    0.0000 H       1  UNL1        0.0233
     43 H           2.0000   -0.9401    0.0000 H       1  UNL1        0.2098
     44 H           8.3724    1.0843    0.0000 H       1  UNL1        0.0540
     45 H           8.2477    2.1509    0.0000 H       1  UNL1        0.0540
     46 H           6.6245   -1.9802    0.0000 H       1  UNL1        0.0280
     47 H           6.5699   -2.8553    0.0000 H       1  UNL1        0.0280
     48 H           7.4450   -2.9099    0.0000 H       1  UNL1        0.0280
     49 H           9.1973   -1.6916    0.0000 H       1  UNL1        0.0574
     50 H           8.3229   -3.2048    0.0000 H       1  UNL1        0.0272
     51 H           9.0535   -3.6897    0.0000 H       1  UNL1        0.0272
     52 H           9.5383   -2.9591    0.0000 H       1  UNL1        0.0272
@<TRIPOS>BOND
     1     9     1    1
     2     1    22    1
     3     2    13    1
     4     2    20    1
     5    12     3    1
     6     3    43    1
     7     4    15    2
     8     5    20    2
     9     6    22    2
    10     7     8    1
    11     7     9    1
    12     7    15    1
    13     7    17    1
    14     8    10    1
    15     8    12    1
    16     8    27    1
    17     9    11    1
    18     9    28    1
    19    10    14    1
    20    10    18    1
    21    10    29    1
    22    11    13    1
    23    11    19    1
    24    11    30    1
    25    12    16    1
    26    12    31    1
    27    13    14    1
    28    13    32    1
    29    14    33    1
    30    14    34    1
    31    15    16    1
    32    16    35    1
    33    16    36    1
    34    17    37    1
    35    17    38    1
    36    17    39    1
    37    18    40    1
    38    18    41    1
    39    18    42    1
    40    19    20    1
    41    19    21    2
    42    21    44    1
    43    21    45    1
    44    22    23    1
    45    23    24    1
    46    23    25    2
    47    24    46    1
    48    24    47    1
    49    24    48    1
    50    25    26    1
    51    25    49    1
    52    26    50    1
    53    26    51    1
    54    26    52    1
