@<TRIPOS>MOLECULE
IMPHY005672
 64 67 0 0 0
SMALL
GASTEIGER

@<TRIPOS>ATOM
      1 O           8.2709   -1.8906    0.0000 O.3     1  UNL1       -0.3849
      2 O           7.7056   -2.2170    0.0000 O.3     1  UNL1       -0.3851
      3 O           7.0628    1.5491    0.0000 O.3     1  UNL1       -0.4608
      4 O           8.5677    1.3054    0.0000 O.3     1  UNL1       -0.3803
      5 O           9.5823    1.9349    0.0000 O.2     1  UNL1       -0.2946
      6 O           2.5357   -3.0032    0.0000 O.3     1  UNL1       -0.3915
      7 O           5.3307    1.5491    0.0000 O.2     1  UNL1       -0.2512
      8 C           7.9288   -0.9509    0.0000 C.3     1  UNL1        0.1070
      9 C           7.9288    0.0491    0.0000 C.3     1  UNL1        0.0718
     10 C           7.0628   -1.4509    0.0000 C.3     1  UNL1        0.1024
     11 C           6.1968   -0.9509    0.0000 C.3     1  UNL1        0.0033
     12 C           7.0628    0.5491    0.0000 C.3     1  UNL1        0.1145
     13 C           8.8750    0.3538    0.0000 C.3     1  UNL1        0.1347
     14 C           5.2868   -1.4578    0.0000 C.3     1  UNL1       -0.0053
     15 C           6.1968    0.0491    0.0000 C.3     1  UNL1       -0.0086
     16 C           8.8750   -1.2556    0.0000 C.3     1  UNL1       -0.0175
     17 C           9.4586   -0.4509    0.0000 C.3     1  UNL1       -0.0136
     18 C           7.0789   -2.4924    0.0000 C.3     1  UNL1       -0.0025
     19 C           7.9288    1.0491    0.0000 C.3     1  UNL1       -0.0503
     20 C           5.2787   -2.4994    0.0000 C.2     1  UNL1       -0.0647
     21 C           4.3599   -0.8937    0.0000 C.3     1  UNL1       -0.0412
     22 C           6.1808   -3.0202    0.0000 C.2     1  UNL1       -0.0813
     23 C           5.2945   -0.4578    0.0000 C.3     1  UNL1       -0.0555
     24 C           9.6851    0.9402    0.0000 C.2     1  UNL1        0.1623
     25 C           4.3433   -3.0491    0.0000 C.3     1  UNL1       -0.0051
     26 C           3.4120   -1.4216    0.0000 C.3     1  UNL1       -0.0258
     27 C           3.4037   -2.5066    0.0000 C.3     1  UNL1        0.0590
     28 C          10.5979    0.5319    0.0000 C.3     1  UNL1       -0.0031
     29 C           6.1968    2.0491    0.0000 C.2     1  UNL1        0.3042
     30 C           6.1968    3.0491    0.0000 C.3     1  UNL1        0.0332
     31 H           6.9329   -0.5259    0.0000 H       1  UNL1        0.0339
     32 H           6.5259    0.8591    0.0000 H       1  UNL1        0.0741
     33 H           5.9847    0.6317    0.0000 H       1  UNL1        0.0305
     34 H           5.5862   -0.0586    0.0000 H       1  UNL1        0.0305
     35 H           8.6240   -1.8226    0.0000 H       1  UNL1        0.0295
     36 H           9.4124   -1.5649    0.0000 H       1  UNL1        0.0295
     37 H           9.9195   -0.8656    0.0000 H       1  UNL1        0.0298
     38 H           9.9195   -0.0362    0.0000 H       1  UNL1        0.0298
     39 H           7.2969   -3.0728    0.0000 H       1  UNL1        0.0336
     40 H           7.6880   -2.3769    0.0000 H       1  UNL1        0.0336
     41 H           8.5488    1.0491    0.0000 H       1  UNL1        0.0238
     42 H           7.9288    1.6691    0.0000 H       1  UNL1        0.0238
     43 H           7.3088    1.0491    0.0000 H       1  UNL1        0.0238
     44 H           4.7681   -0.4270    0.0000 H       1  UNL1        0.0274
     45 H           3.9700   -0.4116    0.0000 H       1  UNL1        0.0274
     46 H           6.1832   -3.6402    0.0000 H       1  UNL1        0.0573
     47 H           8.8814   -1.9983    0.0000 H       1  UNL1        0.2103
     48 H           5.9145   -0.4626    0.0000 H       1  UNL1        0.0238
     49 H           5.2993    0.1622    0.0000 H       1  UNL1        0.0238
     50 H           4.6745   -0.4530    0.0000 H       1  UNL1        0.0238
     51 H           7.8133   -2.8275    0.0000 H       1  UNL1        0.2103
     52 H           3.9460   -3.5251    0.0000 H       1  UNL1        0.0335
     53 H           4.7443   -3.5220    0.0000 H       1  UNL1        0.0335
     54 H           3.2075   -0.8363    0.0000 H       1  UNL1        0.0290
     55 H           2.8004   -1.5230    0.0000 H       1  UNL1        0.0290
     56 H           8.9833    1.7654    0.0000 H       1  UNL1        0.2108
     57 H           2.8686   -2.1935    0.0000 H       1  UNL1        0.0596
     58 H          10.3448   -0.0341    0.0000 H       1  UNL1        0.0307
     59 H          11.1639    0.2787    0.0000 H       1  UNL1        0.0307
     60 H          10.8511    1.0978    0.0000 H       1  UNL1        0.0307
     61 H           2.0000   -2.6912    0.0000 H       1  UNL1        0.2098
     62 H           6.8168    3.0491    0.0000 H       1  UNL1        0.0342
     63 H           6.1968    3.6691    0.0000 H       1  UNL1        0.0342
     64 H           5.5768    3.0491    0.0000 H       1  UNL1        0.0342
@<TRIPOS>BOND
     1     8     1    1
     2     1    47    1
     3    10     2    1
     4     2    51    1
     5    12     3    1
     6     3    29    1
     7    13     4    1
     8     4    56    1
     9     5    24    2
    10    27     6    1
    11     6    61    1
    12     7    29    2
    13     8     9    1
    14     8    10    1
    15     8    16    1
    16     9    12    1
    17     9    13    1
    18     9    19    1
    19    10    11    1
    20    10    18    1
    21    11    14    1
    22    11    15    1
    23    11    31    1
    24    12    15    1
    25    12    32    1
    26    13    17    1
    27    13    24    1
    28    14    20    1
    29    14    21    1
    30    14    23    1
    31    15    33    1
    32    15    34    1
    33    16    17    1
    34    16    35    1
    35    16    36    1
    36    17    37    1
    37    17    38    1
    38    18    22    1
    39    18    39    1
    40    18    40    1
    41    19    41    1
    42    19    42    1
    43    19    43    1
    44    20    22    2
    45    20    25    1
    46    21    26    1
    47    21    44    1
    48    21    45    1
    49    22    46    1
    50    23    48    1
    51    23    49    1
    52    23    50    1
    53    24    28    1
    54    25    27    1
    55    25    52    1
    56    25    53    1
    57    26    27    1
    58    26    54    1
    59    26    55    1
    60    27    57    1
    61    28    58    1
    62    28    59    1
    63    28    60    1
    64    29    30    1
    65    30    62    1
    66    30    63    1
    67    30    64    1
