@<TRIPOS>MOLECULE
IMPHY010613
 43 43 0 0 0
SMALL
GASTEIGER

@<TRIPOS>ATOM
      1 O           6.0010    0.5000    0.0000 O.3     1  UNL1       -0.4612
      2 O           5.1350    4.0000    0.0000 O.3     1  UNL1       -0.4913
      3 O           8.5991    4.0000    0.0000 O.3     1  UNL1       -0.4913
      4 O           6.8671    5.0000    0.0000 O.3     1  UNL1       -0.5009
      5 O           7.7331    0.5000    0.0000 O.2     1  UNL1       -0.2450
      6 N           4.2690   -3.5000    0.0000 N.pl3   1  UNL1       -0.1138
      7 N           3.4030   -5.0000    0.0000 N.pl3   1  UNL1       -0.2893
      8 N           2.5369   -3.5000    0.0000 N.pl3   1  UNL1       -0.2893
      9 C           5.1350   -1.0000    0.0000 C.3     1  UNL1       -0.0156
     10 C           5.1350   -2.0000    0.0000 C.3     1  UNL1       -0.0156
     11 C           6.0010   -0.5000    0.0000 C.3     1  UNL1        0.0929
     12 C           4.2690   -2.5000    0.0000 C.3     1  UNL1        0.1048
     13 C           6.8671    2.0000    0.0000 C.ar    1  UNL1        0.0661
     14 C           6.8671    1.0000    0.0000 C.2     1  UNL1        0.3394
     15 C           7.7331    2.5000    0.0000 C.ar    1  UNL1       -0.0021
     16 C           6.0010    2.5000    0.0000 C.ar    1  UNL1       -0.0021
     17 C           6.0010    3.5000    0.0000 C.ar    1  UNL1        0.1658
     18 C           7.7331    3.5000    0.0000 C.ar    1  UNL1        0.1658
     19 C           6.8671    4.0000    0.0000 C.ar    1  UNL1        0.2011
     20 C           3.4030   -4.0000    0.0000 C.cat   1  UNL1        0.3765
     21 C           4.2690    3.5000    0.0000 C.3     1  UNL1        0.0790
     22 C           9.4651    3.5000    0.0000 C.3     1  UNL1        0.0790
     23 H           4.9230   -0.4174    0.0000 H       1  UNL1        0.0299
     24 H           4.5244   -1.1077    0.0000 H       1  UNL1        0.0299
     25 H           5.3471   -2.5826    0.0000 H       1  UNL1        0.0298
     26 H           5.7456   -1.8923    0.0000 H       1  UNL1        0.0298
     27 H           6.2131   -1.0826    0.0000 H       1  UNL1        0.0697
     28 H           6.6116   -0.3923    0.0000 H       1  UNL1        0.0697
     29 H           4.0569   -1.9174    0.0000 H       1  UNL1        0.0693
     30 H           3.6584   -2.6077    0.0000 H       1  UNL1        0.0693
     31 H           8.2700    2.1900    0.0000 H       1  UNL1        0.0663
     32 H           5.4641    2.1900    0.0000 H       1  UNL1        0.0663
     33 H           7.4040    5.3100    0.0000 H       1  UNL1        0.2924
     34 H           3.9590    4.0369    0.0000 H       1  UNL1        0.0660
     35 H           3.7320    3.1900    0.0000 H       1  UNL1        0.0660
     36 H           4.5790    2.9631    0.0000 H       1  UNL1        0.0660
     37 H           9.1551    2.9631    0.0000 H       1  UNL1        0.0660
     38 H          10.0021    3.1900    0.0000 H       1  UNL1        0.0660
     39 H           9.7751    4.0369    0.0000 H       1  UNL1        0.0660
     40 H           2.8660   -5.3100    0.0000 H       1  UNL1        0.2546
     41 H           3.9399   -5.3100    0.0000 H       1  UNL1        0.2546
     42 H           2.0000   -3.8100    0.0000 H       1  UNL1        0.2546
     43 H           2.5369   -2.8800    0.0000 H       1  UNL1        0.2546
@<TRIPOS>BOND
     1     1    11    1
     2     1    14    1
     3     2    17    1
     4     2    21    1
     5     3    18    1
     6     3    22    1
     7     4    19    1
     8     4    33    1
     9     5    14    2
    10     6    12    1
    11     6    20    2
    12     7    20    1
    13     7    40    1
    14     7    41    1
    15     8    20    1
    16     8    42    1
    17     8    43    1
    18     9    10    1
    19     9    11    1
    20     9    23    1
    21     9    24    1
    22    10    12    1
    23    10    25    1
    24    10    26    1
    25    11    27    1
    26    11    28    1
    27    12    29    1
    28    12    30    1
    29    13    14    1
    30    13    15   ar
    31    13    16   ar
    32    15    18   ar
    33    15    31    1
    34    16    17   ar
    35    16    32    1
    36    17    19   ar
    37    18    19   ar
    38    21    34    1
    39    21    35    1
    40    21    36    1
    41    22    37    1
    42    22    38    1
    43    22    39    1
