@<TRIPOS>MOLECULE
IMPHY013741
 39 40 0 0 0
SMALL
GASTEIGER

@<TRIPOS>ATOM
      1 P           6.8909   -2.4945    0.0000 P.3     1  UNL1        0.4834
      2 P           8.4732   -3.1989    0.0000 P.3     1  UNL1        0.4808
      3 O           5.0298   -0.0299    0.0000 O.3     1  UNL1       -0.3456
      4 O           3.1330   -1.7900    0.0000 O.3     1  UNL1       -0.3864
      5 O           2.4608    0.2791    0.0000 O.3     1  UNL1       -0.3847
      6 O           6.3031   -1.6854    0.0000 O.3     1  UNL1       -0.2837
      7 O           5.9529    1.5579    0.0000 O.2     1  UNL1       -0.2464
      8 O           7.4787   -3.3035    0.0000 O.3     1  UNL1       -0.1862
      9 O           7.6999   -1.9067    0.0000 O.3     1  UNL1       -0.3022
     10 O           6.0819   -3.0822    0.0000 O.2     1  UNL1       -0.2269
     11 O           4.2208    4.5579    0.0000 O.2     1  UNL1       -0.2677
     12 O           9.4677   -3.0944    0.0000 O.3     1  UNL1       -0.3023
     13 O           8.5778   -4.1935    0.0000 O.3     1  UNL1       -0.3023
     14 O           8.3687   -2.2044    0.0000 O.2     1  UNL1       -0.2271
     15 N           4.2208    1.5579    0.0000 N.ar    1  UNL1       -0.2715
     16 N           5.0868    3.0579    0.0000 N.ar    1  UNL1       -0.2749
     17 C           3.7208   -0.9809    0.0000 C.3     1  UNL1        0.1135
     18 C           3.4118   -0.0299    0.0000 C.3     1  UNL1        0.1286
     19 C           4.7208   -0.9809    0.0000 C.3     1  UNL1        0.1134
     20 C           4.2208    0.5579    0.0000 C.3     1  UNL1        0.1679
     21 C           5.3086   -1.7900    0.0000 C.3     1  UNL1        0.0879
     22 C           5.0868    2.0579    0.0000 C.ar    1  UNL1        0.3314
     23 C           3.3548    2.0579    0.0000 C.ar    1  UNL1        0.0171
     24 C           3.3548    3.0579    0.0000 C.ar    1  UNL1        0.0192
     25 C           4.2208    3.5579    0.0000 C.ar    1  UNL1        0.2539
     26 H           3.1085   -0.8840    0.0000 H       1  UNL1        0.0647
     27 H           3.3148    0.5825    0.0000 H       1  UNL1        0.0665
     28 H           5.3332   -0.8840    0.0000 H       1  UNL1        0.0647
     29 H           3.6684    0.8394    0.0000 H       1  UNL1        0.0867
     30 H           4.7514   -2.0618    0.0000 H       1  UNL1        0.0592
     31 H           5.4795   -2.3859    0.0000 H       1  UNL1        0.0592
     32 H           3.3852   -2.3564    0.0000 H       1  UNL1        0.2100
     33 H           2.0000   -0.1357    0.0000 H       1  UNL1        0.2101
     34 H           2.8179    1.7479    0.0000 H       1  UNL1        0.0813
     35 H           5.6238    3.3679    0.0000 H       1  UNL1        0.1734
     36 H           2.8179    3.3679    0.0000 H       1  UNL1        0.0686
     37 H           7.6351   -1.2901    0.0000 H       1  UNL1        0.2220
     38 H           9.8322   -3.5960    0.0000 H       1  UNL1        0.2220
     39 H           8.0762   -4.5579    0.0000 H       1  UNL1        0.2220
@<TRIPOS>BOND
     1     1     6    1
     2     1     8    1
     3     1     9    1
     4     1    10    2
     5     2     8    1
     6     2    12    1
     7     2    13    1
     8     2    14    2
     9     3    19    1
    10     3    20    1
    11    17     4    1
    12     4    32    1
    13    18     5    1
    14     5    33    1
    15     6    21    1
    16     7    22    2
    17     9    37    1
    18    11    25    2
    19    12    38    1
    20    13    39    1
    21    20    15    1
    22    15    22   ar
    23    15    23   ar
    24    16    22   ar
    25    16    25   ar
    26    16    35    1
    27    17    18    1
    28    17    19    1
    29    17    26    1
    30    18    20    1
    31    18    27    1
    32    19    21    1
    33    19    28    1
    34    20    29    1
    35    21    30    1
    36    21    31    1
    37    23    24   ar
    38    23    34    1
    39    24    25   ar
    40    24    36    1
