@<TRIPOS>MOLECULE
IMPHY015905
 30 30 0 0 0
SMALL
GASTEIGER

@<TRIPOS>ATOM
      1 O           3.7320    0.5670    0.0000 O.3     1  UNL1       -0.4595
      2 O           2.8660    2.0670    0.0000 O.2     1  UNL1       -0.2502
      3 C           4.5981    2.0670    0.0000 C.3     1  UNL1        0.0594
      4 C           5.4641    2.5670    0.0000 C.3     1  UNL1       -0.0499
      5 C           4.0981    2.9330    0.0000 C.3     1  UNL1       -0.0499
      6 C           5.0981    1.2010    0.0000 C.3     1  UNL1       -0.0499
      7 C           3.7320    1.5670    0.0000 C.2     1  UNL1        0.3128
      8 C           2.8660    0.0670    0.0000 C.3     1  UNL1        0.1175
      9 C           2.8660   -0.9330    0.0000 C.ar    1  UNL1       -0.0103
     10 C           2.0000   -1.4330    0.0000 C.ar    1  UNL1       -0.0554
     11 C           3.7320   -1.4330    0.0000 C.ar    1  UNL1       -0.0554
     12 C           2.0000   -2.4330    0.0000 C.ar    1  UNL1       -0.0614
     13 C           3.7320   -2.4330    0.0000 C.ar    1  UNL1       -0.0614
     14 C           2.8660   -2.9330    0.0000 C.ar    1  UNL1       -0.0617
     15 H           5.7741    2.0300    0.0000 H       1  UNL1        0.0240
     16 H           6.0010    2.8770    0.0000 H       1  UNL1        0.0240
     17 H           5.1541    3.1039    0.0000 H       1  UNL1        0.0240
     18 H           4.6350    3.2430    0.0000 H       1  UNL1        0.0240
     19 H           3.7881    3.4700    0.0000 H       1  UNL1        0.0240
     20 H           3.5611    2.6230    0.0000 H       1  UNL1        0.0240
     21 H           4.5611    0.8910    0.0000 H       1  UNL1        0.0240
     22 H           5.4081    0.6640    0.0000 H       1  UNL1        0.0240
     23 H           5.6350    1.5110    0.0000 H       1  UNL1        0.0240
     24 H           2.6540    0.6496    0.0000 H       1  UNL1        0.0749
     25 H           2.2554   -0.0407    0.0000 H       1  UNL1        0.0749
     26 H           1.4631   -1.1230    0.0000 H       1  UNL1        0.0621
     27 H           4.2690   -1.1230    0.0000 H       1  UNL1        0.0621
     28 H           1.4631   -2.7430    0.0000 H       1  UNL1        0.0618
     29 H           4.2690   -2.7430    0.0000 H       1  UNL1        0.0618
     30 H           2.8660   -3.5530    0.0000 H       1  UNL1        0.0618
@<TRIPOS>BOND
     1     1     7    1
     2     1     8    1
     3     2     7    2
     4     3     4    1
     5     3     5    1
     6     3     6    1
     7     3     7    1
     8     4    15    1
     9     4    16    1
    10     4    17    1
    11     5    18    1
    12     5    19    1
    13     5    20    1
    14     6    21    1
    15     6    22    1
    16     6    23    1
    17     8     9    1
    18     8    24    1
    19     8    25    1
    20     9    10   ar
    21     9    11   ar
    22    10    12   ar
    23    10    26    1
    24    11    13   ar
    25    11    27    1
    26    12    14   ar
    27    12    28    1
    28    13    14   ar
    29    13    29    1
    30    14    30    1
