@<TRIPOS>MOLECULE
IMPHY004353
 56 58 0 0 0
SMALL
GASTEIGER

@<TRIPOS>ATOM
      1 O          10.7404    0.8047    0.0000 O.3     1  UNL1       -0.4489
      2 O          10.7404   -0.8047    0.0000 O.3     1  UNL1       -0.4525
      3 O           8.9282    2.0000    0.0000 O.3     1  UNL1       -0.4910
      4 O           6.3301   -0.5000    0.0000 O.2     1  UNL1       -0.2917
      5 O           2.8660    0.5000    0.0000 O.3     1  UNL1       -0.4906
      6 O           2.8660    2.5000    0.0000 O.3     1  UNL1       -0.4914
      7 O           3.7320   -1.0000    0.0000 O.3     1  UNL1       -0.4770
      8 O           5.4641   -1.0000    0.0000 O.2     1  UNL1       -0.2450
      9 N           6.3301   -2.5000    0.0000 N.3     1  UNL1       -0.3187
     10 C           8.0622    0.5000    0.0000 C.ar    1  UNL1        0.0088
     11 C           8.0622   -0.5000    0.0000 C.ar    1  UNL1       -0.0354
     12 C           7.1962   -1.0000    0.0000 C.3     1  UNL1       -0.0146
     13 C           7.1962    1.0000    0.0000 C.3     1  UNL1        0.0395
     14 C           8.9282    1.0000    0.0000 C.ar    1  UNL1        0.1691
     15 C           9.7942    0.5000    0.0000 C.ar    1  UNL1        0.2078
     16 C           8.9282   -1.0000    0.0000 C.ar    1  UNL1       -0.0124
     17 C           9.7942   -0.5000    0.0000 C.ar    1  UNL1        0.1702
     18 C           7.1962   -2.0000    0.0000 C.3     1  UNL1       -0.0004
     19 C           6.3301    0.5000    0.0000 C.2     1  UNL1        0.1685
     20 C           5.4641    1.0000    0.0000 C.ar    1  UNL1        0.0355
     21 C          11.3241    0.0000    0.0000 C.3     1  UNL1        0.2334
     22 C           4.5981    0.5000    0.0000 C.ar    1  UNL1        0.1144
     23 C           5.4641    2.0000    0.0000 C.ar    1  UNL1       -0.0468
     24 C           3.7320    1.0000    0.0000 C.ar    1  UNL1        0.1761
     25 C           3.7320    2.0000    0.0000 C.ar    1  UNL1        0.1623
     26 C           4.5981    2.5000    0.0000 C.ar    1  UNL1       -0.0156
     27 C           6.3301   -3.5000    0.0000 C.3     1  UNL1       -0.0158
     28 C           9.7942    2.5000    0.0000 C.3     1  UNL1        0.0790
     29 C           4.5981   -0.5000    0.0000 C.2     1  UNL1        0.3412
     30 C           2.0000    1.0000    0.0000 C.3     1  UNL1        0.0790
     31 C           2.8660    3.5000    0.0000 C.3     1  UNL1        0.0790
     32 H           6.9841   -0.4174    0.0000 H       1  UNL1        0.0326
     33 H           6.5856   -1.1077    0.0000 H       1  UNL1        0.0326
     34 H           7.5947    1.4750    0.0000 H       1  UNL1        0.0395
     35 H           6.7976    1.4750    0.0000 H       1  UNL1        0.0395
     36 H           8.9282   -1.6200    0.0000 H       1  UNL1        0.0658
     37 H           7.4082   -2.5826    0.0000 H       1  UNL1        0.0427
     38 H           7.8067   -1.8923    0.0000 H       1  UNL1        0.0427
     39 H          11.7849   -0.4147    0.0000 H       1  UNL1        0.1166
     40 H          11.7849    0.4147    0.0000 H       1  UNL1        0.1166
     41 H           5.7932   -2.1900    0.0000 H       1  UNL1        0.1216
     42 H           6.0010    2.3100    0.0000 H       1  UNL1        0.0626
     43 H           4.5981    3.1200    0.0000 H       1  UNL1        0.0655
     44 H           5.7101   -3.5000    0.0000 H       1  UNL1        0.0388
     45 H           6.3301   -4.1200    0.0000 H       1  UNL1        0.0388
     46 H           6.9501   -3.5000    0.0000 H       1  UNL1        0.0388
     47 H          10.1042    1.9631    0.0000 H       1  UNL1        0.0660
     48 H          10.3312    2.8100    0.0000 H       1  UNL1        0.0660
     49 H           9.4842    3.0369    0.0000 H       1  UNL1        0.0660
     50 H           2.3100    1.5369    0.0000 H       1  UNL1        0.0660
     51 H           1.4631    1.3100    0.0000 H       1  UNL1        0.0660
     52 H           1.6900    0.4631    0.0000 H       1  UNL1        0.0660
     53 H           3.4860    3.5000    0.0000 H       1  UNL1        0.0660
     54 H           2.8660    4.1200    0.0000 H       1  UNL1        0.0660
     55 H           2.2460    3.5000    0.0000 H       1  UNL1        0.0660
     56 H           3.7320   -1.6200    0.0000 H       1  UNL1        0.2954
@<TRIPOS>BOND
     1     1    15    1
     2     1    21    1
     3     2    17    1
     4     2    21    1
     5     3    14    1
     6     3    28    1
     7     4    19    2
     8     5    24    1
     9     5    30    1
    10     6    25    1
    11     6    31    1
    12     7    29    1
    13     7    56    1
    14     8    29    2
    15     9    18    1
    16     9    27    1
    17     9    41    1
    18    10    11   ar
    19    10    13    1
    20    10    14   ar
    21    11    12    1
    22    11    16   ar
    23    12    18    1
    24    12    32    1
    25    12    33    1
    26    13    19    1
    27    13    34    1
    28    13    35    1
    29    14    15   ar
    30    15    17   ar
    31    16    17   ar
    32    16    36    1
    33    18    37    1
    34    18    38    1
    35    19    20    1
    36    20    22   ar
    37    20    23   ar
    38    21    39    1
    39    21    40    1
    40    22    24   ar
    41    22    29    1
    42    23    26   ar
    43    23    42    1
    44    24    25   ar
    45    25    26   ar
    46    26    43    1
    47    27    44    1
    48    27    45    1
    49    27    46    1
    50    28    47    1
    51    28    48    1
    52    28    49    1
    53    30    50    1
    54    30    51    1
    55    30    52    1
    56    31    53    1
    57    31    54    1
    58    31    55    1
