@<TRIPOS>MOLECULE
IMPHY017221
 27 27 0 0 0
SMALL
GASTEIGER

@<TRIPOS>ATOM
      1 O           3.7320   -2.0950    0.0000 O.3     1  UNL1       -0.5068
      2 N           3.7320    1.9050    0.0000 N.pl3   1  UNL1       -0.3356
      3 C           3.7320    0.9050    0.0000 C.ar    1  UNL1        0.0353
      4 C           4.5981    0.4050    0.0000 C.ar    1  UNL1       -0.0257
      5 C           2.8660    0.4050    0.0000 C.ar    1  UNL1       -0.0257
      6 C           4.5981   -0.5950    0.0000 C.ar    1  UNL1       -0.0155
      7 C           2.8660   -0.5950    0.0000 C.ar    1  UNL1       -0.0155
      8 C           3.7320   -1.0950    0.0000 C.ar    1  UNL1        0.1175
      9 C           5.4641    0.9050    0.0000 C.3     1  UNL1       -0.0378
     10 C           2.0000    0.9050    0.0000 C.3     1  UNL1       -0.0378
     11 C           4.5981    2.4050    0.0000 C.3     1  UNL1        0.0004
     12 C           2.8660    2.4050    0.0000 C.3     1  UNL1        0.0004
     13 H           5.1350   -0.9050    0.0000 H       1  UNL1        0.0657
     14 H           2.3291   -0.9050    0.0000 H       1  UNL1        0.0657
     15 H           5.7741    0.3681    0.0000 H       1  UNL1        0.0278
     16 H           6.0010    1.2150    0.0000 H       1  UNL1        0.0278
     17 H           5.1541    1.4419    0.0000 H       1  UNL1        0.0278
     18 H           2.3100    1.4419    0.0000 H       1  UNL1        0.0278
     19 H           1.4631    1.2150    0.0000 H       1  UNL1        0.0278
     20 H           1.6900    0.3681    0.0000 H       1  UNL1        0.0278
     21 H           4.9081    1.8681    0.0000 H       1  UNL1        0.0428
     22 H           5.1350    2.7150    0.0000 H       1  UNL1        0.0428
     23 H           4.2881    2.9419    0.0000 H       1  UNL1        0.0428
     24 H           3.1760    2.9419    0.0000 H       1  UNL1        0.0428
     25 H           2.3291    2.7150    0.0000 H       1  UNL1        0.0428
     26 H           2.5560    1.8681    0.0000 H       1  UNL1        0.0428
     27 H           3.1951   -2.4050    0.0000 H       1  UNL1        0.2921
@<TRIPOS>BOND
     1     1     8    1
     2     1    27    1
     3     2     3    1
     4     2    11    1
     5     2    12    1
     6     3     4   ar
     7     3     5   ar
     8     4     6   ar
     9     4     9    1
    10     5     7   ar
    11     5    10    1
    12     6     8   ar
    13     6    13    1
    14     7     8   ar
    15     7    14    1
    16     9    15    1
    17     9    16    1
    18     9    17    1
    19    10    18    1
    20    10    19    1
    21    10    20    1
    22    11    21    1
    23    11    22    1
    24    11    23    1
    25    12    24    1
    26    12    25    1
    27    12    26    1
