@<TRIPOS>MOLECULE
IMPHY009146
 35 36 0 0 0
SMALL
GASTEIGER

@<TRIPOS>ATOM
      1 O           3.7320   -2.5000    0.0000 O.3     1  UNL1       -0.4614
      2 O           2.0000   -2.5000    0.0000 O.2     1  UNL1       -0.2453
      3 C           3.7320   -0.5000    0.0000 C.3     1  UNL1       -0.0026
      4 C           3.7320    0.5000    0.0000 C.3     1  UNL1       -0.0200
      5 C           4.5981   -1.0000    0.0000 C.3     1  UNL1       -0.0112
      6 C           4.5981    1.0000    0.0000 C.ar    1  UNL1       -0.0410
      7 C           2.8660   -1.0000    0.0000 C.2     1  UNL1        0.0330
      8 C           4.5981   -2.0000    0.0000 C.3     1  UNL1        0.0933
      9 C           5.4641    0.5000    0.0000 C.ar    1  UNL1       -0.0470
     10 C           4.5981    2.0000    0.0000 C.ar    1  UNL1       -0.0470
     11 C           2.8660   -2.0000    0.0000 C.2     1  UNL1        0.3349
     12 C           6.3301    1.0000    0.0000 C.ar    1  UNL1       -0.0586
     13 C           5.4641    2.5000    0.0000 C.ar    1  UNL1       -0.0586
     14 C           2.0000   -0.5000    0.0000 C.2     1  UNL1       -0.0884
     15 C           5.4641   -0.5000    0.0000 C.3     1  UNL1       -0.0394
     16 C           3.7320    2.5000    0.0000 C.3     1  UNL1       -0.0394
     17 C           6.3301    2.0000    0.0000 C.ar    1  UNL1       -0.0612
     18 H           4.2690   -0.1900    0.0000 H       1  UNL1        0.0355
     19 H           3.5200    1.0826    0.0000 H       1  UNL1        0.0319
     20 H           3.1215    0.3923    0.0000 H       1  UNL1        0.0319
     21 H           5.2087   -1.1077    0.0000 H       1  UNL1        0.0304
     22 H           4.8101   -0.4174    0.0000 H       1  UNL1        0.0304
     23 H           4.8101   -2.5826    0.0000 H       1  UNL1        0.0698
     24 H           5.2087   -1.8923    0.0000 H       1  UNL1        0.0698
     25 H           6.8671    0.6900    0.0000 H       1  UNL1        0.0620
     26 H           5.4641    3.1200    0.0000 H       1  UNL1        0.0620
     27 H           2.0000    0.1200    0.0000 H       1  UNL1        0.0540
     28 H           1.4631   -0.8100    0.0000 H       1  UNL1        0.0540
     29 H           4.8441   -0.5000    0.0000 H       1  UNL1        0.0278
     30 H           5.4641   -1.1200    0.0000 H       1  UNL1        0.0278
     31 H           6.0841   -0.5000    0.0000 H       1  UNL1        0.0278
     32 H           4.0420    3.0369    0.0000 H       1  UNL1        0.0278
     33 H           3.1951    2.8100    0.0000 H       1  UNL1        0.0278
     34 H           3.4220    1.9631    0.0000 H       1  UNL1        0.0278
     35 H           6.8671    2.3100    0.0000 H       1  UNL1        0.0618
@<TRIPOS>BOND
     1     1     8    1
     2     1    11    1
     3     2    11    2
     4     3     4    1
     5     3     5    1
     6     3     7    1
     7     3    18    1
     8     4     6    1
     9     4    19    1
    10     4    20    1
    11     5     8    1
    12     5    21    1
    13     5    22    1
    14     6     9   ar
    15     6    10   ar
    16     7    11    1
    17     7    14    2
    18     8    23    1
    19     8    24    1
    20     9    12   ar
    21     9    15    1
    22    10    13   ar
    23    10    16    1
    24    12    17   ar
    25    12    25    1
    26    13    17   ar
    27    13    26    1
    28    14    27    1
    29    14    28    1
    30    15    29    1
    31    15    30    1
    32    15    31    1
    33    16    32    1
    34    16    33    1
    35    16    34    1
    36    17    35    1
