@<TRIPOS>MOLECULE
IMPHY000293
 28 28 0 0 0
SMALL
GASTEIGER

@<TRIPOS>ATOM
      1 O           4.5981    1.8730    0.0000 O.3     1  UNL1       -0.4773
      2 O           2.8660    1.8730    0.0000 O.2     1  UNL1       -0.2455
      3 C           3.7320   -1.6270    0.0000 C.3     1  UNL1       -0.0309
      4 C           4.5981   -1.1270    0.0000 C.3     1  UNL1       -0.0434
      5 C           2.8660   -1.1270    0.0000 C.3     1  UNL1       -0.0261
      6 C           4.5981   -0.1270    0.0000 C.3     1  UNL1       -0.0205
      7 C           2.8660   -0.1270    0.0000 C.2     1  UNL1       -0.0622
      8 C           3.2320   -2.4930    0.0000 C.3     1  UNL1       -0.0595
      9 C           4.2320   -2.4930    0.0000 C.3     1  UNL1       -0.0595
     10 C           3.7320    0.3730    0.0000 C.2     1  UNL1        0.0354
     11 C           2.0000    0.3730    0.0000 C.3     1  UNL1       -0.0430
     12 C           3.7320    1.3730    0.0000 C.2     1  UNL1        0.3327
     13 H           4.8101   -1.7096    0.0000 H       1  UNL1        0.0274
     14 H           5.2087   -1.0193    0.0000 H       1  UNL1        0.0274
     15 H           2.2554   -1.0193    0.0000 H       1  UNL1        0.0315
     16 H           2.6540   -1.7096    0.0000 H       1  UNL1        0.0315
     17 H           5.2087   -0.2346    0.0000 H       1  UNL1        0.0316
     18 H           4.8101    0.4556    0.0000 H       1  UNL1        0.0316
     19 H           3.6951   -2.8030    0.0000 H       1  UNL1        0.0235
     20 H           4.5420   -3.0300    0.0000 H       1  UNL1        0.0235
     21 H           4.7690   -2.1830    0.0000 H       1  UNL1        0.0235
     22 H           2.6951   -2.1830    0.0000 H       1  UNL1        0.0235
     23 H           2.9220   -3.0300    0.0000 H       1  UNL1        0.0235
     24 H           3.7690   -2.8030    0.0000 H       1  UNL1        0.0235
     25 H           2.3100    0.9099    0.0000 H       1  UNL1        0.0275
     26 H           1.4631    0.6830    0.0000 H       1  UNL1        0.0275
     27 H           1.6900   -0.1639    0.0000 H       1  UNL1        0.0275
     28 H           4.5981    2.4930    0.0000 H       1  UNL1        0.2954
@<TRIPOS>BOND
     1     1    12    1
     2     1    28    1
     3     2    12    2
     4     3     4    1
     5     3     5    1
     6     3     8    1
     7     3     9    1
     8     4     6    1
     9     4    13    1
    10     4    14    1
    11     5     7    1
    12     5    15    1
    13     5    16    1
    14     6    10    1
    15     6    17    1
    16     6    18    1
    17     7    10    2
    18     7    11    1
    19     8    22    1
    20     8    23    1
    21     8    24    1
    22     9    19    1
    23     9    20    1
    24     9    21    1
    25    10    12    1
    26    11    25    1
    27    11    26    1
    28    11    27    1
