@<TRIPOS>MOLECULE
IMPHY002119
 60 64 0 0 0
SMALL
GASTEIGER

@<TRIPOS>ATOM
      1 O           7.9288   -2.0254    0.0000 O.3     1  UNL1       -0.3877
      2 O           2.5357   -3.0778    0.0000 O.3     1  UNL1       -0.3918
      3 O           3.9686   -0.4087    0.0000 O.2     1  UNL1       -0.3004
      4 O           9.1885    2.8479    0.0000 O.3     1  UNL1       -0.4571
      5 O          10.9491    3.1236    0.0000 O.2     1  UNL1       -0.2456
      6 C           7.9288   -1.0254    0.0000 C.3     1  UNL1        0.0751
      7 C           7.0628   -1.5254    0.0000 C.3     1  UNL1       -0.0079
      8 C           7.9288   -0.0254    0.0000 C.3     1  UNL1        0.0036
      9 C           6.1968   -1.0254    0.0000 C.3     1  UNL1       -0.0232
     10 C           5.2868   -1.5323    0.0000 C.3     1  UNL1        0.0321
     11 C           8.8750    0.2793    0.0000 C.3     1  UNL1       -0.0081
     12 C           7.0628    0.4746    0.0000 C.3     1  UNL1       -0.0442
     13 C           6.1968   -0.0254    0.0000 C.3     1  UNL1       -0.0484
     14 C           5.2787   -2.5739    0.0000 C.3     1  UNL1       -0.0263
     15 C           8.8750   -1.3302    0.0000 C.3     1  UNL1       -0.0226
     16 C           7.0789   -2.5669    0.0000 C.3     1  UNL1       -0.0470
     17 C           9.4586   -0.5254    0.0000 C.3     1  UNL1       -0.0432
     18 C           6.1808   -3.0947    0.0000 C.3     1  UNL1       -0.0489
     19 C           4.3599   -0.9682    0.0000 C.3     1  UNL1       -0.0381
     20 C           7.9288    0.9746    0.0000 C.3     1  UNL1       -0.0564
     21 C           4.3433   -3.1236    0.0000 C.3     1  UNL1       -0.0231
     22 C           3.4120   -1.4961    0.0000 C.3     1  UNL1       -0.0259
     23 C           9.1857    1.2298    0.0000 C.2     1  UNL1       -0.0222
     24 C           3.4037   -2.5811    0.0000 C.3     1  UNL1        0.0556
     25 C           4.9520   -0.5900    0.0000 C.2     1  UNL1        0.1270
     26 C           8.5993    2.0399    0.0000 C.3     1  UNL1        0.1147
     27 C          10.1373    1.5372    0.0000 C.2     1  UNL1        0.0252
     28 C          10.1390    2.5372    0.0000 C.2     1  UNL1        0.3323
     29 H           7.8022   -1.9447    0.0000 H       1  UNL1        0.0332
     30 H           6.9329   -0.6004    0.0000 H       1  UNL1        0.0314
     31 H           9.4875    0.3755    0.0000 H       1  UNL1        0.0353
     32 H           7.4613    0.9495    0.0000 H       1  UNL1        0.0272
     33 H           6.6643    0.9495    0.0000 H       1  UNL1        0.0272
     34 H           5.9847    0.5572    0.0000 H       1  UNL1        0.0268
     35 H           5.5862   -0.1331    0.0000 H       1  UNL1        0.0268
     36 H           5.2820   -3.4239    0.0000 H       1  UNL1        0.0311
     37 H           8.6240   -1.8971    0.0000 H       1  UNL1        0.0293
     38 H           9.4124   -1.6394    0.0000 H       1  UNL1        0.0293
     39 H           7.2969   -3.1473    0.0000 H       1  UNL1        0.0269
     40 H           7.6880   -2.4514    0.0000 H       1  UNL1        0.0269
     41 H           9.9195   -0.9401    0.0000 H       1  UNL1        0.0272
     42 H           9.9195   -0.1107    0.0000 H       1  UNL1        0.0272
     43 H           5.7835   -3.5706    0.0000 H       1  UNL1        0.0268
     44 H           6.5818   -3.5676    0.0000 H       1  UNL1        0.0268
     45 H           4.7681   -0.5015    0.0000 H       1  UNL1        0.0276
     46 H           3.9700   -0.4861    0.0000 H       1  UNL1        0.0276
     47 H           8.5488    0.9746    0.0000 H       1  UNL1        0.0236
     48 H           7.9288    1.5946    0.0000 H       1  UNL1        0.0236
     49 H           7.3088    0.9746    0.0000 H       1  UNL1        0.0236
     50 H           3.9460   -3.5996    0.0000 H       1  UNL1        0.0293
     51 H           4.7443   -3.5965    0.0000 H       1  UNL1        0.0293
     52 H           3.2075   -0.9108    0.0000 H       1  UNL1        0.0290
     53 H           2.8004   -1.5975    0.0000 H       1  UNL1        0.0290
     54 H           8.4658   -2.3354    0.0000 H       1  UNL1        0.2102
     55 H           2.8686   -2.2680    0.0000 H       1  UNL1        0.0593
     56 H           5.3542   -0.1181    0.0000 H       1  UNL1        0.1032
     57 H           8.1393    2.4555    0.0000 H       1  UNL1        0.0746
     58 H           8.1378    1.6258    0.0000 H       1  UNL1        0.0746
     59 H          10.6383    1.1719    0.0000 H       1  UNL1        0.0689
     60 H           2.0000   -2.7657    0.0000 H       1  UNL1        0.2098
@<TRIPOS>BOND
     1     6     1    1
     2     1    54    1
     3    24     2    1
     4     2    60    1
     5     3    25    2
     6     4    26    1
     7     4    28    1
     8     5    28    2
     9     6     7    1
    10     6     8    1
    11     6    15    1
    12     7     9    1
    13     7    16    1
    14     7    29    1
    15     8    11    1
    16     8    12    1
    17     8    20    1
    18     9    10    1
    19     9    13    1
    20     9    30    1
    21    10    14    1
    22    10    19    1
    23    10    25    1
    24    11    17    1
    25    11    23    1
    26    11    31    1
    27    12    13    1
    28    12    32    1
    29    12    33    1
    30    13    34    1
    31    13    35    1
    32    14    18    1
    33    14    21    1
    34    14    36    1
    35    15    17    1
    36    15    37    1
    37    15    38    1
    38    16    18    1
    39    16    39    1
    40    16    40    1
    41    17    41    1
    42    17    42    1
    43    18    43    1
    44    18    44    1
    45    19    22    1
    46    19    45    1
    47    19    46    1
    48    20    47    1
    49    20    48    1
    50    20    49    1
    51    21    24    1
    52    21    50    1
    53    21    51    1
    54    22    24    1
    55    22    52    1
    56    22    53    1
    57    23    26    1
    58    23    27    2
    59    24    55    1
    60    25    56    1
    61    26    57    1
    62    26    58    1
    63    27    28    1
    64    27    59    1
