@<TRIPOS>MOLECULE
IMPHY001724
 44 47 0 0 0
SMALL
GASTEIGER

@<TRIPOS>ATOM
      1 O           6.1719    1.3432    0.0000 O.3     1  UNL1       -0.4569
      2 O           7.0479   -0.1951    0.0000 O.2     1  UNL1       -0.2449
      3 O           2.5394   -1.7869    0.0000 O.3     1  UNL1       -0.4914
      4 O           4.3427   -2.8467    0.0000 O.3     1  UNL1       -0.4914
      5 N           2.5836    1.5453    0.0000 N.3     1  UNL1       -0.2978
      6 C           3.5298    1.8500    0.0000 C.3     1  UNL1        0.0416
      7 C           4.3958    1.3500    0.0000 C.3     1  UNL1        0.0418
      8 C           5.2619    1.8500    0.0000 C.3     1  UNL1        0.1153
      9 C           3.5298    2.8500    0.0000 C.2     1  UNL1       -0.0544
     10 C           2.5836    3.1548    0.0000 C.3     1  UNL1       -0.0174
     11 C           2.0000    2.3500    0.0000 C.3     1  UNL1        0.0029
     12 C           5.2619    2.8500    0.0000 C.3     1  UNL1        0.0035
     13 C           4.3798    0.3085    0.0000 C.ar    1  UNL1       -0.0213
     14 C           4.3958    3.3500    0.0000 C.2     1  UNL1       -0.0797
     15 C           5.2778   -0.2192    0.0000 C.ar    1  UNL1        0.0663
     16 C           2.2729    0.5948    0.0000 C.3     1  UNL1       -0.0122
     17 C           3.4279   -0.2121    0.0000 C.ar    1  UNL1       -0.0119
     18 C           6.1799    0.3016    0.0000 C.2     1  UNL1        0.3399
     19 C           5.2862   -1.3042    0.0000 C.ar    1  UNL1       -0.0021
     20 C           3.4111   -1.2970    0.0000 C.ar    1  UNL1        0.1618
     21 C           4.3466   -1.8467    0.0000 C.ar    1  UNL1        0.1623
     22 C           2.5278   -2.7869    0.0000 C.3     1  UNL1        0.0790
     23 C           5.2068   -3.3500    0.0000 C.3     1  UNL1        0.0790
     24 H           3.4399    1.0048    0.0000 H       1  UNL1        0.0516
     25 H           3.6565    0.9307    0.0000 H       1  UNL1        0.0404
     26 H           5.9947    2.2807    0.0000 H       1  UNL1        0.0744
     27 H           2.8346    3.7217    0.0000 H       1  UNL1        0.0323
     28 H           2.0462    3.4640    0.0000 H       1  UNL1        0.0323
     29 H           1.5391    2.7648    0.0000 H       1  UNL1        0.0430
     30 H           1.5391    1.9353    0.0000 H       1  UNL1        0.0430
     31 H           5.8725    2.7424    0.0000 H       1  UNL1        0.0343
     32 H           5.4739    3.4326    0.0000 H       1  UNL1        0.0343
     33 H           4.3958    3.9700    0.0000 H       1  UNL1        0.0573
     34 H           1.6836    0.7874    0.0000 H       1  UNL1        0.0391
     35 H           2.0803    0.0054    0.0000 H       1  UNL1        0.0391
     36 H           2.8623    0.4022    0.0000 H       1  UNL1        0.0391
     37 H           2.8970    0.1082    0.0000 H       1  UNL1        0.0658
     38 H           5.8243   -1.6121    0.0000 H       1  UNL1        0.0663
     39 H           1.9079   -2.7797    0.0000 H       1  UNL1        0.0660
     40 H           2.5207   -3.4068    0.0000 H       1  UNL1        0.0660
     41 H           3.1478   -2.7940    0.0000 H       1  UNL1        0.0660
     42 H           4.8947   -3.8858    0.0000 H       1  UNL1        0.0660
     43 H           5.7425   -3.6621    0.0000 H       1  UNL1        0.0660
     44 H           5.5189   -2.8143    0.0000 H       1  UNL1        0.0660
@<TRIPOS>BOND
     1     1     8    1
     2     1    18    1
     3     2    18    2
     4     3    20    1
     5     3    22    1
     6     4    21    1
     7     4    23    1
     8     5     6    1
     9     5    11    1
    10     5    16    1
    11     6     7    1
    12     6     9    1
    13     6    24    1
    14     7     8    1
    15     7    13    1
    16     7    25    1
    17     8    12    1
    18     8    26    1
    19     9    10    1
    20     9    14    2
    21    10    11    1
    22    10    27    1
    23    10    28    1
    24    11    29    1
    25    11    30    1
    26    12    14    1
    27    12    31    1
    28    12    32    1
    29    13    15   ar
    30    13    17   ar
    31    14    33    1
    32    15    18    1
    33    15    19   ar
    34    16    34    1
    35    16    35    1
    36    16    36    1
    37    17    20   ar
    38    17    37    1
    39    19    21   ar
    40    19    38    1
    41    20    21   ar
    42    22    39    1
    43    22    40    1
    44    22    41    1
    45    23    42    1
    46    23    43    1
    47    23    44    1
