@<TRIPOS>MOLECULE
IMPHY001703
 44 47 0 0 0
SMALL
GASTEIGER

@<TRIPOS>ATOM
      1 O           4.5988   -2.2504    0.0000 O.3     1  UNL1       -0.3545
      2 O           2.0000   -0.7500    0.0000 O.3     1  UNL1       -0.3615
      3 O           5.4646    0.2500    0.0000 O.3     1  UNL1       -0.4545
      4 O           3.7326    1.2500    0.0000 O.3     1  UNL1       -0.4549
      5 O           6.3306   -1.2500    0.0000 O.3     1  UNL1       -0.4580
      6 O           4.5986    1.7500    0.0000 O.2     1  UNL1       -0.2512
      7 O           2.0005    1.2500    0.0000 O.2     1  UNL1       -0.2512
      8 O           7.1967    0.2500    0.0000 O.2     1  UNL1       -0.2450
      9 C           4.5986   -1.2500    0.0000 C.3     1  UNL1        0.1723
     10 C           3.7326   -1.7500    0.0000 C.3     1  UNL1        0.1241
     11 C           2.8665   -1.2500    0.0000 C.3     1  UNL1        0.1180
     12 C           2.8665   -0.2500    0.0000 C.3     1  UNL1        0.1282
     13 C           4.5986   -0.2500    0.0000 C.3     1  UNL1        0.1767
     14 C           3.7326    0.2500    0.0000 C.3     1  UNL1        0.1710
     15 C           5.4646   -0.7500    0.0000 C.3     1  UNL1        0.1279
     16 C           5.4646    1.2500    0.0000 C.2     1  UNL1        0.3044
     17 C           2.8665    1.7500    0.0000 C.2     1  UNL1        0.3044
     18 C           7.1967   -0.7500    0.0000 C.2     1  UNL1        0.3393
     19 C           6.3306    1.7500    0.0000 C.3     1  UNL1        0.0332
     20 C           2.8665    2.7500    0.0000 C.3     1  UNL1        0.0332
     21 C           8.0627   -1.2500    0.0000 C.ar    1  UNL1        0.0590
     22 C           8.0627   -2.2500    0.0000 C.ar    1  UNL1       -0.0478
     23 C           8.9287   -0.7500    0.0000 C.ar    1  UNL1       -0.0478
     24 C           8.9287   -2.7500    0.0000 C.ar    1  UNL1       -0.0610
     25 C           9.7947   -1.2500    0.0000 C.ar    1  UNL1       -0.0610
     26 C           9.7947   -2.2500    0.0000 C.ar    1  UNL1       -0.0617
     27 H           3.3075   -2.4861    0.0000 H       1  UNL1        0.0655
     28 H           2.5566   -1.7870    0.0000 H       1  UNL1        0.0650
     29 H           2.5566    0.2870    0.0000 H       1  UNL1        0.0661
     30 H           4.5986    0.3700    0.0000 H       1  UNL1        0.0804
     31 H           3.1956    0.5600    0.0000 H       1  UNL1        0.0800
     32 H           5.8631   -0.2751    0.0000 H       1  UNL1        0.0729
     33 H           5.0661   -0.2751    0.0000 H       1  UNL1        0.0729
     34 H           6.6406    1.2131    0.0000 H       1  UNL1        0.0342
     35 H           6.8676    2.0600    0.0000 H       1  UNL1        0.0342
     36 H           6.0206    2.2869    0.0000 H       1  UNL1        0.0342
     37 H           3.4865    2.7500    0.0000 H       1  UNL1        0.0342
     38 H           2.8665    3.3700    0.0000 H       1  UNL1        0.0342
     39 H           2.2465    2.7500    0.0000 H       1  UNL1        0.0342
     40 H           7.5258   -2.5600    0.0000 H       1  UNL1        0.0626
     41 H           8.9287   -0.1300    0.0000 H       1  UNL1        0.0626
     42 H           8.9287   -3.3700    0.0000 H       1  UNL1        0.0618
     43 H          10.3317   -0.9400    0.0000 H       1  UNL1        0.0618
     44 H          10.3317   -2.5600    0.0000 H       1  UNL1        0.0618
@<TRIPOS>BOND
     1     1     9    1
     2     1    10    1
     3    11     2    1
     4    12     2    1
     5    13     3    1
     6     3    16    1
     7    14     4    1
     8     4    17    1
     9     5    15    1
    10     5    18    1
    11     6    16    2
    12     7    17    2
    13     8    18    2
    14     9    10    1
    15     9    13    1
    16     9    15    1
    17    10    11    1
    18    10    27    1
    19    11    12    1
    20    11    28    1
    21    12    14    1
    22    12    29    1
    23    13    14    1
    24    13    30    1
    25    14    31    1
    26    15    32    1
    27    15    33    1
    28    16    19    1
    29    17    20    1
    30    18    21    1
    31    19    34    1
    32    19    35    1
    33    19    36    1
    34    20    37    1
    35    20    38    1
    36    20    39    1
    37    21    22   ar
    38    21    23   ar
    39    22    24   ar
    40    22    40    1
    41    23    25   ar
    42    23    41    1
    43    24    26   ar
    44    24    42    1
    45    25    26   ar
    46    25    43    1
    47    26    44    1
