@<TRIPOS>MOLECULE
IMPHY015018
 40 44 0 0 0
SMALL
GASTEIGER

@<TRIPOS>ATOM
      1 O           8.1588    0.7936    0.0000 O.3     1  UNL1       -0.4520
      2 O           8.1588    2.4031    0.0000 O.3     1  UNL1       -0.4526
      3 O           2.8176   -0.3518    0.0000 O.2     1  UNL1       -0.2759
      4 N           3.7312    1.1197    0.0000 N.am    1  UNL1       -0.2940
      5 C           4.5705    0.5915    0.0000 C.3     1  UNL1        0.0561
      6 C           5.4805    1.0984    0.0000 C.ar    1  UNL1       -0.0120
      7 C           4.5624   -0.4501    0.0000 C.3     1  UNL1       -0.0042
      8 C           5.4805    2.0984    0.0000 C.ar    1  UNL1       -0.0367
      9 C           6.3465    0.5984    0.0000 C.ar    1  UNL1        0.0331
     10 C           3.7568    2.1111    0.0000 C.3     1  UNL1        0.0193
     11 C           4.6223    2.5953    0.0000 C.3     1  UNL1       -0.0113
     12 C           5.4645   -0.9709    0.0000 C.ar    1  UNL1       -0.0375
     13 C           6.3626   -0.4431    0.0000 C.ar    1  UNL1       -0.0107
     14 C           7.2125    1.0984    0.0000 C.ar    1  UNL1        0.1742
     15 C           6.3465    2.5984    0.0000 C.ar    1  UNL1       -0.0126
     16 C           7.2125    2.0984    0.0000 C.ar    1  UNL1        0.1671
     17 C           2.8496    0.6477    0.0000 C.2     1  UNL1        0.2130
     18 C           5.4562   -2.0559    0.0000 C.ar    1  UNL1       -0.0579
     19 C           7.3145   -0.9638    0.0000 C.ar    1  UNL1       -0.0536
     20 C           8.7424    1.5984    0.0000 C.3     1  UNL1        0.2333
     21 C           6.3958   -2.5984    0.0000 C.ar    1  UNL1       -0.0615
     22 C           7.3312   -2.0486    0.0000 C.ar    1  UNL1       -0.0612
     23 C           2.0000    1.1751    0.0000 C.3     1  UNL1        0.0124
     24 H           3.8248    0.1835    0.0000 H       1  UNL1        0.0554
     25 H           3.9524   -0.3393    0.0000 H       1  UNL1        0.0335
     26 H           4.3489   -1.0321    0.0000 H       1  UNL1        0.0335
     27 H           3.5550    2.6974    0.0000 H       1  UNL1        0.0468
     28 H           3.1440    2.0168    0.0000 H       1  UNL1        0.0468
     29 H           5.0233    3.0681    0.0000 H       1  UNL1        0.0328
     30 H           4.2282    3.0740    0.0000 H       1  UNL1        0.0328
     31 H           6.3465    3.2184    0.0000 H       1  UNL1        0.0658
     32 H           4.9180   -2.3638    0.0000 H       1  UNL1        0.0620
     33 H           7.8454   -0.6435    0.0000 H       1  UNL1        0.0624
     34 H           9.2032    1.1836    0.0000 H       1  UNL1        0.1166
     35 H           9.2032    2.0131    0.0000 H       1  UNL1        0.1166
     36 H           6.3982   -3.2184    0.0000 H       1  UNL1        0.0618
     37 H           7.8717   -2.3524    0.0000 H       1  UNL1        0.0618
     38 H           2.3270    1.7019    0.0000 H       1  UNL1        0.0323
     39 H           1.4732    1.5021    0.0000 H       1  UNL1        0.0323
     40 H           1.6730    0.6484    0.0000 H       1  UNL1        0.0323
@<TRIPOS>BOND
     1     1    14    1
     2     1    20    1
     3     2    16    1
     4     2    20    1
     5     3    17    2
     6     4     5    1
     7     4    10    1
     8     4    17   am
     9     5     6    1
    10     5     7    1
    11     5    24    1
    12     6     8   ar
    13     6     9   ar
    14     7    12    1
    15     7    25    1
    16     7    26    1
    17     8    11    1
    18     8    15   ar
    19     9    13    1
    20     9    14   ar
    21    10    11    1
    22    10    27    1
    23    10    28    1
    24    11    29    1
    25    11    30    1
    26    12    13   ar
    27    12    18   ar
    28    13    19   ar
    29    14    16   ar
    30    15    16   ar
    31    15    31    1
    32    17    23    1
    33    18    21   ar
    34    18    32    1
    35    19    22   ar
    36    19    33    1
    37    20    34    1
    38    20    35    1
    39    21    22   ar
    40    21    36    1
    41    22    37    1
    42    23    38    1
    43    23    39    1
    44    23    40    1
