@<TRIPOS>MOLECULE
IMPHY004401
 73 77 0 0 0
SMALL
GASTEIGER

@<TRIPOS>ATOM
      1 O           7.8003   -2.7500    0.0000 O.3     1  UNL1       -0.3402
      2 O           6.0682   -2.7500    0.0000 O.3     1  UNL1       -0.3405
      3 O           6.9343   -0.2500    0.0000 O.3     1  UNL1       -0.3338
      4 O           9.5323   -1.7500    0.0000 O.3     1  UNL1       -0.3863
      5 O           7.8003   -4.7500    0.0000 O.3     1  UNL1       -0.3841
      6 O           7.8003    1.2500    0.0000 O.3     1  UNL1       -0.4532
      7 O           9.5323    0.2500    0.0000 O.3     1  UNL1       -0.3829
      8 O           6.0682   -5.7500    0.0000 O.3     1  UNL1       -0.3864
      9 O           4.3362   -4.7500    0.0000 O.3     1  UNL1       -0.3865
     10 O           3.4702   -3.2500    0.0000 O.3     1  UNL1       -0.3924
     11 O           6.0682    3.2500    0.0000 O.2     1  UNL1       -0.4507
     12 O           6.0682    0.2500    0.0000 O.2     1  UNL1       -0.2830
     13 O           4.3198    0.2154    0.0000 O.3     1  UNL1       -0.5058
     14 O           2.5381    3.2742    0.0000 O.3     1  UNL1       -0.5065
     15 O           8.6663    5.7500    0.0000 O.3     1  UNL1       -0.5033
     16 O          10.3984    4.7500    0.0000 O.3     1  UNL1       -0.5033
     17 C           7.8003   -1.7500    0.0000 C.3     1  UNL1        0.1161
     18 C           8.6663   -1.2500    0.0000 C.3     1  UNL1        0.1155
     19 C           6.9343   -1.2500    0.0000 C.3     1  UNL1        0.0887
     20 C           6.9343   -3.2500    0.0000 C.3     1  UNL1        0.1884
     21 C           6.9343   -4.2500    0.0000 C.3     1  UNL1        0.1341
     22 C           8.6663   -0.2500    0.0000 C.3     1  UNL1        0.1454
     23 C           6.0682   -4.7500    0.0000 C.3     1  UNL1        0.1141
     24 C           5.2022   -4.2500    0.0000 C.3     1  UNL1        0.1119
     25 C           5.2022   -3.2500    0.0000 C.3     1  UNL1        0.1130
     26 C           7.8003    0.2500    0.0000 C.3     1  UNL1        0.2311
     27 C           6.0682   -1.7500    0.0000 C.3     1  UNL1       -0.0360
     28 C           4.3362   -2.7500    0.0000 C.3     1  UNL1        0.0730
     29 C           6.9343    1.7500    0.0000 C.ar    1  UNL1        0.2138
     30 C           6.9343    2.7500    0.0000 C.ar    1  UNL1        0.1810
     31 C           6.0682    1.2500    0.0000 C.ar    1  UNL1        0.2382
     32 C           5.2022    1.7500    0.0000 C.ar    1  UNL1        0.1092
     33 C           7.8003    3.2500    0.0000 C.ar    1  UNL1        0.0247
     34 C           5.2022    2.7500    0.0000 C.ar    1  UNL1        0.1465
     35 C           4.3083    1.2153    0.0000 C.ar    1  UNL1        0.1348
     36 C           4.3083    3.2847    0.0000 C.ar    1  UNL1        0.0231
     37 C           7.8003    4.2500    0.0000 C.ar    1  UNL1       -0.0057
     38 C           8.6663    2.7500    0.0000 C.ar    1  UNL1       -0.0473
     39 C           3.4022    1.7292    0.0000 C.ar    1  UNL1        0.0223
     40 C           3.4022    2.7708    0.0000 C.ar    1  UNL1        0.1239
     41 C           8.6663    4.7500    0.0000 C.ar    1  UNL1        0.1589
     42 C           9.5323    3.2500    0.0000 C.ar    1  UNL1       -0.0159
     43 C           9.5323    4.2500    0.0000 C.ar    1  UNL1        0.1583
     44 H           8.3372   -2.0600    0.0000 H       1  UNL1        0.0650
     45 H           9.2033   -0.9400    0.0000 H       1  UNL1        0.0648
     46 H           6.3973   -0.9400    0.0000 H       1  UNL1        0.0621
     47 H           6.9343   -2.6300    0.0000 H       1  UNL1        0.0938
     48 H           6.9343   -4.8700    0.0000 H       1  UNL1        0.0671
     49 H           8.6663    0.3700    0.0000 H       1  UNL1        0.0683
     50 H           5.5313   -5.0600    0.0000 H       1  UNL1        0.0648
     51 H           4.6653   -3.9400    0.0000 H       1  UNL1        0.0647
     52 H           5.2022   -2.6300    0.0000 H       1  UNL1        0.0647
     53 H           7.2634    0.5600    0.0000 H       1  UNL1        0.1084
     54 H           5.7582   -1.2131    0.0000 H       1  UNL1        0.0255
     55 H           5.5313   -2.0600    0.0000 H       1  UNL1        0.0255
     56 H           6.3783   -2.2869    0.0000 H       1  UNL1        0.0255
     57 H           4.7347   -2.2750    0.0000 H       1  UNL1        0.0584
     58 H           3.9377   -2.2750    0.0000 H       1  UNL1        0.0584
     59 H          10.0693   -1.4400    0.0000 H       1  UNL1        0.2100
     60 H           8.3372   -4.4400    0.0000 H       1  UNL1        0.2101
     61 H           9.5323    0.8700    0.0000 H       1  UNL1        0.2102
     62 H           6.6052   -6.0600    0.0000 H       1  UNL1        0.2100
     63 H           4.3362   -5.3700    0.0000 H       1  UNL1        0.2100
     64 H           2.9332   -2.9400    0.0000 H       1  UNL1        0.2095
     65 H           4.3154    3.9046    0.0000 H       1  UNL1        0.0691
     66 H           7.2634    4.5600    0.0000 H       1  UNL1        0.0662
     67 H           8.6663    2.1300    0.0000 H       1  UNL1        0.0626
     68 H           2.8665    1.4171    0.0000 H       1  UNL1        0.0691
     69 H          10.0693    2.9400    0.0000 H       1  UNL1        0.0655
     70 H           3.7865   -0.1008    0.0000 H       1  UNL1        0.2922
     71 H           2.0000    2.9662    0.0000 H       1  UNL1        0.2921
     72 H           8.1294    6.0600    0.0000 H       1  UNL1        0.2923
     73 H          10.3984    5.3700    0.0000 H       1  UNL1        0.2923
@<TRIPOS>BOND
     1    17     1    1
     2    20     1    1
     3     2    20    1
     4     2    25    1
     5     3    19    1
     6     3    26    1
     7    18     4    1
     8     4    59    1
     9    21     5    1
    10     5    60    1
    11    26     6    1
    12     6    29    1
    13    22     7    1
    14     7    61    1
    15    23     8    1
    16     8    62    1
    17    24     9    1
    18     9    63    1
    19    10    28    1
    20    10    64    1
    21    11    30   ar
    22    11    34   ar
    23    12    31    2
    24    13    35    1
    25    13    70    1
    26    14    40    1
    27    14    71    1
    28    15    41    1
    29    15    72    1
    30    16    43    1
    31    16    73    1
    32    17    18    1
    33    17    19    1
    34    17    44    1
    35    18    22    1
    36    18    45    1
    37    19    27    1
    38    19    46    1
    39    20    21    1
    40    20    47    1
    41    21    23    1
    42    21    48    1
    43    22    26    1
    44    22    49    1
    45    23    24    1
    46    23    50    1
    47    24    25    1
    48    24    51    1
    49    25    28    1
    50    25    52    1
    51    26    53    1
    52    27    54    1
    53    27    55    1
    54    27    56    1
    55    28    57    1
    56    28    58    1
    57    29    30   ar
    58    29    31   ar
    59    30    33    1
    60    31    32   ar
    61    32    34   ar
    62    32    35   ar
    63    33    37   ar
    64    33    38   ar
    65    34    36   ar
    66    35    39   ar
    67    36    40   ar
    68    36    65    1
    69    37    41   ar
    70    37    66    1
    71    38    42   ar
    72    38    67    1
    73    39    40   ar
    74    39    68    1
    75    41    43   ar
    76    42    43   ar
    77    42    69    1
