@<TRIPOS>MOLECULE
IMPHY003650
 61 63 0 0 0
SMALL
GASTEIGER

@<TRIPOS>ATOM
      1 O           6.4421    0.3666    0.0000 O.3     1  UNL1       -0.3586
      2 O           4.6660   -2.6402    0.0000 O.3     1  UNL1       -0.3877
      3 O           6.3981   -1.6402    0.0000 O.3     1  UNL1       -0.4560
      4 O           3.7782    1.8912    0.0000 O.2     1  UNL1       -0.2969
      5 O           5.5321   -3.1402    0.0000 O.2     1  UNL1       -0.2512
      6 C           3.8000   -0.1402    0.0000 C.3     1  UNL1       -0.0140
      7 C           3.8000   -1.1402    0.0000 C.3     1  UNL1       -0.0001
      8 C           4.6660    0.3598    0.0000 C.3     1  UNL1        0.0557
      9 C           2.9061   -1.6749    0.0000 C.3     1  UNL1       -0.0291
     10 C           5.5321   -0.1402    0.0000 C.3     1  UNL1        0.1169
     11 C           4.6660   -1.6402    0.0000 C.3     1  UNL1        0.0986
     12 C           2.9061    0.3944    0.0000 C.3     1  UNL1       -0.0465
     13 C           5.5321   -1.1402    0.0000 C.3     1  UNL1        0.1581
     14 C           2.0000   -1.1611    0.0000 C.3     1  UNL1       -0.0475
     15 C           2.0000   -0.1194    0.0000 C.3     1  UNL1       -0.0520
     16 C           3.8000    0.8598    0.0000 C.3     1  UNL1       -0.0585
     17 C           4.6500    1.4013    0.0000 C.2     1  UNL1        0.1428
     18 C           2.4161   -2.5466    0.0000 C.3     1  UNL1       -0.0595
     19 C           3.4160   -2.5351    0.0000 C.3     1  UNL1       -0.0595
     20 C           6.3981   -0.6402    0.0000 C.3     1  UNL1       -0.0315
     21 C           6.4501    1.4082    0.0000 C.3     1  UNL1        0.0921
     22 C           5.5480    1.9290    0.0000 C.3     1  UNL1        0.0387
     23 C           7.4501    1.4044    0.0000 C.3     1  UNL1       -0.0318
     24 C           6.9534    2.2723    0.0000 C.2     1  UNL1       -0.0595
     25 C           6.3981   -2.6402    0.0000 C.2     1  UNL1        0.3044
     26 C           6.4568    3.1402    0.0000 C.2     1  UNL1       -0.0999
     27 C           7.2641   -3.1402    0.0000 C.3     1  UNL1        0.0332
     28 H           3.8066   -1.9902    0.0000 H       1  UNL1        0.0338
     29 H           5.3989    0.7904    0.0000 H       1  UNL1        0.0412
     30 H           5.2030   -1.9502    0.0000 H       1  UNL1        0.0634
     31 H           3.3107    0.8642    0.0000 H       1  UNL1        0.0271
     32 H           2.5124    0.8734    0.0000 H       1  UNL1        0.0271
     33 H           6.0690   -0.8302    0.0000 H       1  UNL1        0.0790
     34 H           1.3891   -1.0550    0.0000 H       1  UNL1        0.0271
     35 H           1.7909   -1.7448    0.0000 H       1  UNL1        0.0271
     36 H           1.7909    0.4643    0.0000 H       1  UNL1        0.0266
     37 H           1.3891   -0.2255    0.0000 H       1  UNL1        0.0266
     38 H           4.4200    0.8598    0.0000 H       1  UNL1        0.0235
     39 H           3.8000    1.4798    0.0000 H       1  UNL1        0.0235
     40 H           3.1800    0.8598    0.0000 H       1  UNL1        0.0235
     41 H           1.8756   -2.2429    0.0000 H       1  UNL1        0.0235
     42 H           2.1123   -3.0871    0.0000 H       1  UNL1        0.0235
     43 H           2.9566   -2.8504    0.0000 H       1  UNL1        0.0235
     44 H           2.8827   -2.8513    0.0000 H       1  UNL1        0.0235
     45 H           3.7322   -3.0684    0.0000 H       1  UNL1        0.0235
     46 H           3.9494   -2.2189    0.0000 H       1  UNL1        0.0235
     47 H           6.0881   -1.1772    0.0000 H       1  UNL1        0.0259
     48 H           6.9350   -0.9502    0.0000 H       1  UNL1        0.0259
     49 H           6.7081   -0.1033    0.0000 H       1  UNL1        0.0259
     50 H           5.9453    2.4050    0.0000 H       1  UNL1        0.0373
     51 H           5.1470    2.4019    0.0000 H       1  UNL1        0.0373
     52 H           4.1291   -2.9502    0.0000 H       1  UNL1        0.2100
     53 H           7.4477    0.7844    0.0000 H       1  UNL1        0.0261
     54 H           8.0701    1.4020    0.0000 H       1  UNL1        0.0261
     55 H           7.4525    2.0243    0.0000 H       1  UNL1        0.0261
     56 H           7.5734    2.2699    0.0000 H       1  UNL1        0.0595
     57 H           6.7688    3.6760    0.0000 H       1  UNL1        0.0533
     58 H           5.8368    3.1426    0.0000 H       1  UNL1        0.0533
     59 H           6.9541   -3.6772    0.0000 H       1  UNL1        0.0342
     60 H           7.8010   -3.4502    0.0000 H       1  UNL1        0.0342
     61 H           7.5741   -2.6033    0.0000 H       1  UNL1        0.0342
@<TRIPOS>BOND
     1     1    10    1
     2     1    21    1
     3    11     2    1
     4     2    52    1
     5    13     3    1
     6     3    25    1
     7     4    17    2
     8     5    25    2
     9     6     7    1
    10     6     8    1
    11     6    12    1
    12     6    16    1
    13     7     9    1
    14     7    11    1
    15     7    28    1
    16     8    10    1
    17     8    17    1
    18     8    29    1
    19     9    14    1
    20     9    18    1
    21     9    19    1
    22    10    13    1
    23    10    20    1
    24    11    13    1
    25    11    30    1
    26    12    15    1
    27    12    31    1
    28    12    32    1
    29    13    33    1
    30    14    15    1
    31    14    34    1
    32    14    35    1
    33    15    36    1
    34    15    37    1
    35    16    38    1
    36    16    39    1
    37    16    40    1
    38    17    22    1
    39    18    41    1
    40    18    42    1
    41    18    43    1
    42    19    44    1
    43    19    45    1
    44    19    46    1
    45    20    47    1
    46    20    48    1
    47    20    49    1
    48    21    22    1
    49    21    23    1
    50    21    24    1
    51    22    50    1
    52    22    51    1
    53    23    53    1
    54    23    54    1
    55    23    55    1
    56    24    26    2
    57    24    56    1
    58    25    27    1
    59    26    57    1
    60    26    58    1
    61    27    59    1
    62    27    60    1
    63    27    61    1
