@<TRIPOS>MOLECULE
IMPHY014176
 58 62 0 0 0
SMALL
GASTEIGER

@<TRIPOS>ATOM
      1 O           4.6343    1.1127    0.0000 O.3     1  UNL1       -0.3470
      2 O           5.6771    2.4787    0.0000 O.3     1  UNL1       -0.3636
      3 O           4.1465   -1.8188    0.0000 O.3     1  UNL1       -0.4609
      4 O           2.7249   -0.0421    0.0000 O.3     1  UNL1       -0.3900
      5 O           4.2030    3.1975    0.0000 O.2     1  UNL1       -0.2915
      6 O           4.9952   -3.3287    0.0000 O.2     1  UNL1       -0.2512
      7 C           5.0343   -0.2873    0.0000 C.3     1  UNL1        0.0386
      8 C           4.1683    1.2127    0.0000 C.3     1  UNL1        0.1163
      9 C           4.1683    0.2127    0.0000 C.3     1  UNL1       -0.0095
     10 C           5.9004    0.2127    0.0000 C.3     1  UNL1       -0.0196
     11 C           5.0343    1.7127    0.0000 C.3     1  UNL1        0.1829
     12 C           5.9004    1.2127    0.0000 C.3     1  UNL1        0.0063
     13 C           3.2548    0.8060    0.0000 C.3     1  UNL1        0.0800
     14 C           6.8104   -0.2941    0.0000 C.3     1  UNL1       -0.0311
     15 C           5.0183   -1.3288    0.0000 C.3     1  UNL1        0.1113
     16 C           4.6343    0.3127    0.0000 C.3     1  UNL1        0.0605
     17 C           3.2097   -0.0983    0.0000 C.3     1  UNL1       -0.0477
     18 C           2.5856    1.5491    0.0000 C.3     1  UNL1        0.0140
     19 C           4.0638    2.2072    0.0000 C.2     1  UNL1        0.1730
     20 C           2.4397    0.5519    0.0000 C.3     1  UNL1       -0.0434
     21 C           6.8184   -1.3358    0.0000 C.3     1  UNL1       -0.0442
     22 C           5.9163   -1.8566    0.0000 C.3     1  UNL1       -0.0146
     23 C           3.0856    2.4151    0.0000 C.2     1  UNL1       -0.0057
     24 C           7.8103   -0.2826    0.0000 C.3     1  UNL1       -0.0595
     25 C           7.3003    0.5776    0.0000 C.3     1  UNL1       -0.0595
     26 C           2.6789    3.3287    0.0000 C.2     1  UNL1       -0.0918
     27 C           4.1350   -2.8187    0.0000 C.2     1  UNL1        0.3042
     28 C           3.2632   -3.3086    0.0000 C.3     1  UNL1        0.0332
     29 H           4.1683   -0.6373    0.0000 H       1  UNL1        0.0320
     30 H           6.6365    0.6377    0.0000 H       1  UNL1        0.0315
     31 H           6.5110    1.1050    0.0000 H       1  UNL1        0.0320
     32 H           6.1124    1.7953    0.0000 H       1  UNL1        0.0320
     33 H           3.6616    0.3381    0.0000 H       1  UNL1        0.0611
     34 H           4.4856   -1.0116    0.0000 H       1  UNL1        0.0740
     35 H           4.0473    0.5122    0.0000 H       1  UNL1        0.0568
     36 H           5.2277    0.4924    0.0000 H       1  UNL1        0.0568
     37 H           2.7293   -0.4902    0.0000 H       1  UNL1        0.0269
     38 H           3.5064   -0.6427    0.0000 H       1  UNL1        0.0269
     39 H           1.7828    1.8281    0.0000 H       1  UNL1        0.0375
     40 H           1.8533    0.7532    0.0000 H       1  UNL1        0.0272
     41 H           2.1338    0.0126    0.0000 H       1  UNL1        0.0272
     42 H           7.0320   -1.9178    0.0000 H       1  UNL1        0.0272
     43 H           7.4284   -1.2250    0.0000 H       1  UNL1        0.0272
     44 H           5.5154   -2.3295    0.0000 H       1  UNL1        0.0301
     45 H           6.3136   -2.3325    0.0000 H       1  UNL1        0.0301
     46 H           7.8175   -0.9025    0.0000 H       1  UNL1        0.0235
     47 H           8.4303   -0.2754    0.0000 H       1  UNL1        0.0235
     48 H           7.8031    0.3374    0.0000 H       1  UNL1        0.0235
     49 H           7.8408    0.2738    0.0000 H       1  UNL1        0.0235
     50 H           7.6041    1.1181    0.0000 H       1  UNL1        0.0235
     51 H           6.7598    0.8814    0.0000 H       1  UNL1        0.0235
     52 H           6.2877    2.3711    0.0000 H       1  UNL1        0.2128
     53 H           2.1052   -0.0205    0.0000 H       1  UNL1        0.2098
     54 H           3.0433    3.8303    0.0000 H       1  UNL1        0.0539
     55 H           2.0623    3.3935    0.0000 H       1  UNL1        0.0539
     56 H           2.9594   -2.7682    0.0000 H       1  UNL1        0.0342
     57 H           2.7227   -3.6124    0.0000 H       1  UNL1        0.0342
     58 H           3.5670   -3.8491    0.0000 H       1  UNL1        0.0342
@<TRIPOS>BOND
     1     1    11    1
     2     1    16    1
     3    11     2    1
     4     2    52    1
     5    15     3    1
     6     3    27    1
     7    13     4    1
     8     4    53    1
     9     5    19    2
    10     6    27    2
    11     7     9    1
    12     7    10    1
    13     7    15    1
    14     7    16    1
    15     8     9    1
    16     8    11    1
    17     8    13    1
    18     8    19    1
    19     9    17    1
    20     9    29    1
    21    10    12    1
    22    10    14    1
    23    10    30    1
    24    11    12    1
    25    12    31    1
    26    12    32    1
    27    13    18    1
    28    13    33    1
    29    14    21    1
    30    14    24    1
    31    14    25    1
    32    15    22    1
    33    15    34    1
    34    16    35    1
    35    16    36    1
    36    17    20    1
    37    17    37    1
    38    17    38    1
    39    18    20    1
    40    18    23    1
    41    18    39    1
    42    19    23    1
    43    20    40    1
    44    20    41    1
    45    21    22    1
    46    21    42    1
    47    21    43    1
    48    22    44    1
    49    22    45    1
    50    23    26    2
    51    24    46    1
    52    24    47    1
    53    24    48    1
    54    25    49    1
    55    25    50    1
    56    25    51    1
    57    26    54    1
    58    26    55    1
    59    27    28    1
    60    28    56    1
    61    28    57    1
    62    28    58    1
