@<TRIPOS>MOLECULE
IMPHY001680
 45 45 0 0 0
SMALL
GASTEIGER

@<TRIPOS>ATOM
      1 O           8.0622    1.5950    0.0000 O.3     1  UNL1       -0.3849
      2 O           6.3301    3.5950    0.0000 O.3     1  UNL1       -0.3859
      3 O           6.3301    0.5950    0.0000 O.3     1  UNL1       -0.4440
      4 O           8.9282    3.0950    0.0000 O.3     1  UNL1       -0.3783
      5 O           5.4641    3.0950    0.0000 O.3     1  UNL1       -0.4780
      6 O           8.9282    5.0950    0.0000 O.3     1  UNL1       -0.4788
      7 O           4.5981    1.5950    0.0000 O.2     1  UNL1       -0.2467
      8 O           7.1962    5.0950    0.0000 O.2     1  UNL1       -0.2480
      9 O           4.5981    0.5950    0.0000 O.2     1  UNL1       -0.2456
     10 O           2.8660   -4.4050    0.0000 O.3     1  UNL1       -0.4914
     11 O           4.5981   -5.4050    0.0000 O.3     1  UNL1       -0.5033
     12 C           7.1962    2.0950    0.0000 C.3     1  UNL1        0.1313
     13 C           7.1962    3.0950    0.0000 C.3     1  UNL1        0.1212
     14 C           6.3301    1.5950    0.0000 C.3     1  UNL1        0.2270
     15 C           8.0622    3.5950    0.0000 C.3     1  UNL1        0.1799
     16 C           5.4641    2.0950    0.0000 C.2     1  UNL1        0.3487
     17 C           8.0622    4.5950    0.0000 C.2     1  UNL1        0.3363
     18 C           5.4641    0.0950    0.0000 C.2     1  UNL1        0.3328
     19 C           5.4641   -0.9050    0.0000 C.2     1  UNL1        0.0231
     20 C           4.5981   -2.4050    0.0000 C.ar    1  UNL1       -0.0211
     21 C           4.5981   -1.4050    0.0000 C.2     1  UNL1       -0.0477
     22 C           3.7320   -2.9050    0.0000 C.ar    1  UNL1       -0.0092
     23 C           5.4641   -2.9050    0.0000 C.ar    1  UNL1       -0.0509
     24 C           3.7320   -3.9050    0.0000 C.ar    1  UNL1        0.1618
     25 C           4.5981   -4.4050    0.0000 C.ar    1  UNL1        0.1585
     26 C           5.4641   -3.9050    0.0000 C.ar    1  UNL1       -0.0160
     27 C           2.0000   -3.9050    0.0000 C.3     1  UNL1        0.0790
     28 H           7.7331    2.4050    0.0000 H       1  UNL1        0.0663
     29 H           6.6592    2.7850    0.0000 H       1  UNL1        0.0652
     30 H           6.8671    1.2850    0.0000 H       1  UNL1        0.0881
     31 H           8.0622    2.9750    0.0000 H       1  UNL1        0.0738
     32 H           8.5991    1.9050    0.0000 H       1  UNL1        0.2101
     33 H           6.3301    4.2150    0.0000 H       1  UNL1        0.2100
     34 H           9.4651    3.4050    0.0000 H       1  UNL1        0.2106
     35 H           6.0010   -1.2150    0.0000 H       1  UNL1        0.0689
     36 H           4.9272    3.4050    0.0000 H       1  UNL1        0.2952
     37 H           8.9282    5.7150    0.0000 H       1  UNL1        0.2951
     38 H           4.0611   -1.0950    0.0000 H       1  UNL1        0.0626
     39 H           3.1951   -2.5950    0.0000 H       1  UNL1        0.0661
     40 H           6.0010   -2.5950    0.0000 H       1  UNL1        0.0625
     41 H           6.0010   -4.2150    0.0000 H       1  UNL1        0.0655
     42 H           5.1350   -5.7150    0.0000 H       1  UNL1        0.2923
     43 H           2.3100   -3.3681    0.0000 H       1  UNL1        0.0660
     44 H           1.4631   -3.5950    0.0000 H       1  UNL1        0.0660
     45 H           1.6900   -4.4419    0.0000 H       1  UNL1        0.0660
@<TRIPOS>BOND
     1    12     1    1
     2     1    32    1
     3    13     2    1
     4     2    33    1
     5    14     3    1
     6     3    18    1
     7    15     4    1
     8     4    34    1
     9     5    16    1
    10     5    36    1
    11     6    17    1
    12     6    37    1
    13     7    16    2
    14     8    17    2
    15     9    18    2
    16    10    24    1
    17    10    27    1
    18    11    25    1
    19    11    42    1
    20    12    13    1
    21    12    14    1
    22    12    28    1
    23    13    15    1
    24    13    29    1
    25    14    16    1
    26    14    30    1
    27    15    17    1
    28    15    31    1
    29    18    19    1
    30    19    21    2
    31    19    35    1
    32    20    21    1
    33    20    22   ar
    34    20    23   ar
    35    21    38    1
    36    22    24   ar
    37    22    39    1
    38    23    26   ar
    39    23    40    1
    40    24    25   ar
    41    25    26   ar
    42    26    41    1
    43    27    43    1
    44    27    44    1
    45    27    45    1
