@<TRIPOS>MOLECULE
IMPHY016399
 22 23 0 0 0
SMALL
GASTEIGER

@<TRIPOS>ATOM
      1 O           4.6783   -1.1829    0.0000 O.3     1  UNL1       -0.4249
      2 O           6.2619   -0.3782    0.0000 O.2     1  UNL1       -0.2494
      3 C           4.6783    0.4266    0.0000 C.3     1  UNL1        0.0908
      4 C           3.7320    0.1218    0.0000 C.ar    1  UNL1        0.0113
      5 C           5.4883    1.0130    0.0000 C.3     1  UNL1       -0.0454
      6 C           4.3709    1.3782    0.0000 C.3     1  UNL1       -0.0454
      7 C           5.2619   -0.3782    0.0000 C.2     1  UNL1        0.3225
      8 C           3.7320   -0.8782    0.0000 C.ar    1  UNL1        0.1359
      9 C           2.8660    0.6218    0.0000 C.ar    1  UNL1       -0.0540
     10 C           2.8660   -1.3782    0.0000 C.ar    1  UNL1       -0.0189
     11 C           2.0000    0.1218    0.0000 C.ar    1  UNL1       -0.0612
     12 C           2.0000   -0.8782    0.0000 C.ar    1  UNL1       -0.0583
     13 H           5.8519    0.5107    0.0000 H       1  UNL1        0.0243
     14 H           5.9905    1.3765    0.0000 H       1  UNL1        0.0243
     15 H           5.1248    1.5152    0.0000 H       1  UNL1        0.0243
     16 H           4.9609    1.5687    0.0000 H       1  UNL1        0.0243
     17 H           4.1803    1.9682    0.0000 H       1  UNL1        0.0243
     18 H           3.7809    1.1876    0.0000 H       1  UNL1        0.0243
     19 H           2.8660    1.2418    0.0000 H       1  UNL1        0.0622
     20 H           2.8660   -1.9982    0.0000 H       1  UNL1        0.0654
     21 H           1.4631    0.4318    0.0000 H       1  UNL1        0.0618
     22 H           1.4631   -1.1882    0.0000 H       1  UNL1        0.0619
@<TRIPOS>BOND
     1     1     7    1
     2     1     8    1
     3     2     7    2
     4     3     4    1
     5     3     5    1
     6     3     6    1
     7     3     7    1
     8     4     8   ar
     9     4     9   ar
    10     5    13    1
    11     5    14    1
    12     5    15    1
    13     6    16    1
    14     6    17    1
    15     6    18    1
    16     8    10   ar
    17     9    11   ar
    18     9    19    1
    19    10    12   ar
    20    10    20    1
    21    11    12   ar
    22    11    21    1
    23    12    22    1
