@<TRIPOS>MOLECULE
IMPHY007075
 25 26 0 0 0
SMALL
GASTEIGER

@<TRIPOS>ATOM
      1 O           2.6723    2.6739    0.0000 O.2     1  UNL1       -0.2756
      2 N           2.9511    0.9139    0.0000 N.am    1  UNL1       -0.2974
      3 N           4.6261   -2.1739    0.0000 N.ar    1  UNL1       -0.2629
      4 C           3.7601    0.3261    0.0000 C.3     1  UNL1        0.0527
      5 C           4.5691    0.9139    0.0000 C.3     1  UNL1       -0.0218
      6 C           4.2601    1.8649    0.0000 C.3     1  UNL1        0.0262
      7 C           3.2601    1.8649    0.0000 C.2     1  UNL1        0.2159
      8 C           3.7601   -0.6739    0.0000 C.ar    1  UNL1       -0.0089
      9 C           2.0000    0.6048    0.0000 C.3     1  UNL1        0.0038
     10 C           2.8940   -1.1739    0.0000 C.ar    1  UNL1       -0.0539
     11 C           4.6261   -1.1739    0.0000 C.ar    1  UNL1        0.0325
     12 C           2.8940   -2.1739    0.0000 C.ar    1  UNL1       -0.0433
     13 C           3.7601   -2.6739    0.0000 C.ar    1  UNL1        0.0276
     14 H           4.3125    0.0446    0.0000 H       1  UNL1        0.0551
     15 H           4.8791    0.3769    0.0000 H       1  UNL1        0.0291
     16 H           5.1355    1.1660    0.0000 H       1  UNL1        0.0291
     17 H           4.8665    1.9938    0.0000 H       1  UNL1        0.0359
     18 H           4.1953    2.4815    0.0000 H       1  UNL1        0.0359
     19 H           1.8084    1.1945    0.0000 H       1  UNL1        0.0429
     20 H           1.4103    0.4132    0.0000 H       1  UNL1        0.0429
     21 H           2.1916    0.0152    0.0000 H       1  UNL1        0.0429
     22 H           2.3571   -0.8639    0.0000 H       1  UNL1        0.0622
     23 H           5.1630   -0.8639    0.0000 H       1  UNL1        0.0833
     24 H           2.3571   -2.4839    0.0000 H       1  UNL1        0.0633
     25 H           3.7601   -3.2939    0.0000 H       1  UNL1        0.0829
@<TRIPOS>BOND
     1     1     7    2
     2     2     4    1
     3     2     7   am
     4     2     9    1
     5     3    11   ar
     6     3    13   ar
     7     4     5    1
     8     4     8    1
     9     4    14    1
    10     5     6    1
    11     5    15    1
    12     5    16    1
    13     6     7    1
    14     6    17    1
    15     6    18    1
    16     8    10   ar
    17     8    11   ar
    18     9    19    1
    19     9    20    1
    20     9    21    1
    21    10    12   ar
    22    10    22    1
    23    11    23    1
    24    12    13   ar
    25    12    24    1
    26    13    25    1
