@<TRIPOS>MOLECULE
IMPHY011149
 58 61 0 0 0
SMALL
GASTEIGER

@<TRIPOS>ATOM
      1 O           5.6437   -1.9126    0.0000 O.3     1  UNL1       -0.4612
      2 O           2.3052   -1.8299    0.0000 O.3     1  UNL1       -0.4802
      3 O           3.8128   -2.6827    0.0000 O.2     1  UNL1       -0.2504
      4 O           7.3757   -1.8972    0.0000 O.2     1  UNL1       -0.2512
      5 C           6.5090    0.6610    0.0000 C.3     1  UNL1       -0.0184
      6 C           5.6405    1.1567    0.0000 C.3     1  UNL1       -0.0291
      7 C           4.7330    0.6453    0.0000 C.3     1  UNL1       -0.0215
      8 C           4.7302   -0.3963    0.0000 C.3     1  UNL1        0.0173
      9 C           6.5302   -0.3804    0.0000 C.3     1  UNL1       -0.0091
     10 C           6.4845    1.8424    0.0000 C.3     1  UNL1       -0.0402
     11 C           5.6349   -0.9126    0.0000 C.3     1  UNL1        0.1079
     12 C           7.1606    2.8115    0.0000 C.3     1  UNL1       -0.0196
     13 C           5.4865    2.1448    0.0000 C.3     1  UNL1       -0.0487
     14 C           7.4380    1.0310    0.0000 C.3     1  UNL1       -0.0257
     15 C           3.7975   -0.9507    0.0000 C.3     1  UNL1        0.0714
     16 C           3.8034    1.2048    0.0000 C.3     1  UNL1       -0.0469
     17 C           6.1630    2.8812    0.0000 C.3     1  UNL1       -0.0462
     18 C           7.7280    1.9881    0.0000 C.2     1  UNL1       -0.0730
     19 C           4.3936    1.5860    0.0000 C.3     1  UNL1       -0.0589
     20 C           2.8552   -0.4129    0.0000 C.3     1  UNL1       -0.0371
     21 C           2.8582    0.6721    0.0000 C.3     1  UNL1       -0.0515
     22 C           4.3052   -1.8122    0.0000 C.3     1  UNL1       -0.0490
     23 C           3.3052   -1.8211    0.0000 C.2     1  UNL1        0.3111
     24 C           8.7161    2.1420    0.0000 C.2     1  UNL1       -0.0992
     25 C           6.5141   -2.4049    0.0000 C.2     1  UNL1        0.3042
     26 C           6.5230   -3.4048    0.0000 C.3     1  UNL1        0.0332
     27 H           4.9023    1.5780    0.0000 H       1  UNL1        0.0312
     28 H           4.7377   -1.2462    0.0000 H       1  UNL1        0.0352
     29 H           6.7512   -0.9597    0.0000 H       1  UNL1        0.0306
     30 H           7.1388   -0.2618    0.0000 H       1  UNL1        0.0306
     31 H           6.1103    2.3367    0.0000 H       1  UNL1        0.0276
     32 H           5.8988    1.6389    0.0000 H       1  UNL1        0.0276
     33 H           6.1751   -1.2168    0.0000 H       1  UNL1        0.0737
     34 H           7.4071    3.6250    0.0000 H       1  UNL1        0.0346
     35 H           5.1347    2.6553    0.0000 H       1  UNL1        0.0268
     36 H           4.9105    1.9154    0.0000 H       1  UNL1        0.0268
     37 H           7.5335    0.4184    0.0000 H       1  UNL1        0.0315
     38 H           8.0565    0.9878    0.0000 H       1  UNL1        0.0315
     39 H           4.2093    1.6735    0.0000 H       1  UNL1        0.0271
     40 H           3.4111    1.6849    0.0000 H       1  UNL1        0.0271
     41 H           6.3428    3.4746    0.0000 H       1  UNL1        0.0271
     42 H           5.6246    3.1886    0.0000 H       1  UNL1        0.0271
     43 H           4.9768    1.7964    0.0000 H       1  UNL1        0.0235
     44 H           4.1831    2.1692    0.0000 H       1  UNL1        0.0235
     45 H           3.8104    1.3755    0.0000 H       1  UNL1        0.0235
     46 H           2.2446   -0.3051    0.0000 H       1  UNL1        0.0276
     47 H           2.6446   -0.9960    0.0000 H       1  UNL1        0.0276
     48 H           2.6507    1.2564    0.0000 H       1  UNL1        0.0266
     49 H           2.2470    0.5677    0.0000 H       1  UNL1        0.0266
     50 H           3.7710   -2.1270    0.0000 H       1  UNL1        0.0240
     51 H           4.6199   -2.3464    0.0000 H       1  UNL1        0.0240
     52 H           4.8393   -1.4975    0.0000 H       1  UNL1        0.0240
     53 H           9.1051    1.6592    0.0000 H       1  UNL1        0.0534
     54 H           8.9397    2.7203    0.0000 H       1  UNL1        0.0534
     55 H           2.0000   -2.3696    0.0000 H       1  UNL1        0.2951
     56 H           5.9030   -3.4103    0.0000 H       1  UNL1        0.0342
     57 H           6.5284   -4.0248    0.0000 H       1  UNL1        0.0342
     58 H           7.1429   -3.3994    0.0000 H       1  UNL1        0.0342
@<TRIPOS>BOND
     1    11     1    1
     2     1    25    1
     3     2    23    1
     4     2    55    1
     5     3    23    2
     6     4    25    2
     7     5     6    1
     8     5     9    1
     9     5    10    1
    10     5    14    1
    11     6     7    1
    12     6    13    1
    13     6    27    1
    14     7     8    1
    15     7    16    1
    16     7    19    1
    17     8    11    1
    18     8    15    1
    19     8    28    1
    20     9    11    1
    21     9    29    1
    22     9    30    1
    23    10    12    1
    24    10    31    1
    25    10    32    1
    26    11    33    1
    27    12    17    1
    28    12    18    1
    29    12    34    1
    30    13    17    1
    31    13    35    1
    32    13    36    1
    33    14    18    1
    34    14    37    1
    35    14    38    1
    36    15    20    1
    37    15    22    1
    38    15    23    1
    39    16    21    1
    40    16    39    1
    41    16    40    1
    42    17    41    1
    43    17    42    1
    44    18    24    2
    45    19    43    1
    46    19    44    1
    47    19    45    1
    48    20    21    1
    49    20    46    1
    50    20    47    1
    51    21    48    1
    52    21    49    1
    53    22    50    1
    54    22    51    1
    55    22    52    1
    56    24    53    1
    57    24    54    1
    58    25    26    1
    59    26    56    1
    60    26    57    1
    61    26    58    1
