@<TRIPOS>MOLECULE
IMPHY004198
 68 76 0 0 0
SMALL
GASTEIGER

@<TRIPOS>ATOM
      1 O           5.3167    1.0590    0.0000 O.3     1  UNL1       -0.3274
      2 O           4.2334   -3.4592    0.0000 O.3     1  UNL1       -0.3634
      3 O           3.7706    0.2237    0.0000 O.3     1  UNL1       -0.3415
      4 O           7.6414    2.4437    0.0000 O.3     1  UNL1       -0.4495
      5 O           3.2194    3.6693    0.0000 O.3     1  UNL1       -0.4569
      6 O           8.1960    0.3037    0.0000 O.3     1  UNL1       -0.3751
      7 O           3.7247    1.4660    0.0000 O.2     1  UNL1       -0.2913
      8 O           9.0504    1.3265    0.0000 O.2     1  UNL1       -0.2474
      9 O           7.7359   -2.4556    0.0000 O.2     1  UNL1       -0.2920
     10 O           2.0000    2.4920    0.0000 O.2     1  UNL1       -0.2504
     11 C           6.3769    1.3539    0.0000 C.3     1  UNL1        0.1647
     12 C           5.4394    1.7134    0.0000 C.3     1  UNL1        0.0655
     13 C           5.0997   -0.9588    0.0000 C.3     1  UNL1        0.0269
     14 C           4.6218    2.3267    0.0000 C.3     1  UNL1       -0.0010
     15 C           4.7847    0.0957    0.0000 C.3     1  UNL1        0.2345
     16 C           5.9657   -1.4588    0.0000 C.3     1  UNL1       -0.0175
     17 C           5.0997   -2.9588    0.0000 C.3     1  UNL1        0.1119
     18 C           6.6223    2.3478    0.0000 C.3     1  UNL1        0.1799
     19 C           5.9657   -2.4588    0.0000 C.3     1  UNL1        0.0650
     20 C           7.3299    0.8037    0.0000 C.3     1  UNL1        0.1959
     21 C           4.2337   -2.4588    0.0000 C.3     1  UNL1        0.0901
     22 C           4.2337   -1.4588    0.0000 C.3     1  UNL1       -0.0154
     23 C           4.1448    3.9267    0.0000 C.3     1  UNL1        0.1457
     24 C           4.6516    1.0909    0.0000 C.2     1  UNL1        0.1988
     25 C           4.8386    3.2625    0.0000 C.3     1  UNL1       -0.0048
     26 C           3.6371    2.0528    0.0000 C.3     1  UNL1        0.0860
     27 C           7.0364   -1.2044    0.0000 C.3     1  UNL1       -0.0456
     28 C           7.6046   -0.2620    0.0000 C.3     1  UNL1       -0.0102
     29 C           5.0836   -4.0003    0.0000 C.3     1  UNL1       -0.0017
     30 C           8.0680    1.5131    0.0000 C.2     1  UNL1        0.3430
     31 C           3.2536    1.1054    0.0000 C.3     1  UNL1        0.0648
     32 C           5.4272    3.1476    0.0000 C.3     1  UNL1       -0.0579
     33 C           5.9694    3.1053    0.0000 C.3     1  UNL1       -0.0183
     34 C           6.8317   -1.9588    0.0000 C.3     1  UNL1       -0.0495
     35 C           6.8757   -2.9656    0.0000 C.2     1  UNL1        0.1647
     36 C           2.9682    2.7422    0.0000 C.2     1  UNL1        0.3134
     37 C           5.9817   -4.5280    0.0000 C.2     1  UNL1       -0.0779
     38 C           6.8837   -4.0072    0.0000 C.2     1  UNL1       -0.0224
     39 H           5.7486    2.5052    0.0000 H       1  UNL1        0.0416
     40 H           4.3098   -0.6447    0.0000 H       1  UNL1        0.0361
     41 H           6.0887   -0.6177    0.0000 H       1  UNL1        0.0316
     42 H           3.3837   -2.4586    0.0000 H       1  UNL1        0.0625
     43 H           4.0216   -0.8761    0.0000 H       1  UNL1        0.0296
     44 H           3.6231   -1.5664    0.0000 H       1  UNL1        0.0296
     45 H           4.3519    4.7511    0.0000 H       1  UNL1        0.0775
     46 H           5.4081    3.0174    0.0000 H       1  UNL1        0.0308
     47 H           5.1810    3.7794    0.0000 H       1  UNL1        0.0308
     48 H           2.8028    1.8899    0.0000 H       1  UNL1        0.0442
     49 H           7.0207   -1.8242    0.0000 H       1  UNL1        0.0269
     50 H           7.6316   -1.3781    0.0000 H       1  UNL1        0.0269
     51 H           8.0360   -0.7073    0.0000 H       1  UNL1        0.0299
     52 H           8.1455    0.0412    0.0000 H       1  UNL1        0.0299
     53 H           4.4745   -3.8848    0.0000 H       1  UNL1        0.0336
     54 H           4.8656   -4.5807    0.0000 H       1  UNL1        0.0336
     55 H           2.7430    1.4571    0.0000 H       1  UNL1        0.0569
     56 H           2.7995    0.6832    0.0000 H       1  UNL1        0.0569
     57 H           5.8698    2.7134    0.0000 H       1  UNL1        0.0236
     58 H           5.8614    3.5902    0.0000 H       1  UNL1        0.0236
     59 H           4.9846    3.5818    0.0000 H       1  UNL1        0.0236
     60 H           6.4391    3.5100    0.0000 H       1  UNL1        0.0270
     61 H           5.5647    3.5750    0.0000 H       1  UNL1        0.0270
     62 H           5.4998    2.7005    0.0000 H       1  UNL1        0.0270
     63 H           7.1417   -2.4957    0.0000 H       1  UNL1        0.0240
     64 H           7.3687   -1.6488    0.0000 H       1  UNL1        0.0240
     65 H           6.5217   -1.4218    0.0000 H       1  UNL1        0.0240
     66 H           8.7329    0.6137    0.0000 H       1  UNL1        0.2110
     67 H           5.9793   -5.1480    0.0000 H       1  UNL1        0.0574
     68 H           7.4219   -4.3151    0.0000 H       1  UNL1        0.0649
@<TRIPOS>BOND
     1    11     1    1
     2     1    15    1
     3    17     2    1
     4     2    21    1
     5    15     3    1
     6     3    31    1
     7     4    18    1
     8     4    30    1
     9     5    23    1
    10     5    36    1
    11    20     6    1
    12     6    66    1
    13     7    24    2
    14     8    30    2
    15     9    35    2
    16    10    36    2
    17    11    12    1
    18    11    18    1
    19    11    20    1
    20    12    14    1
    21    12    24    1
    22    12    39    1
    23    13    15    1
    24    13    16    1
    25    13    22    1
    26    13    40    1
    27    14    25    1
    28    14    26    1
    29    14    32    1
    30    15    24    1
    31    16    19    1
    32    16    27    1
    33    16    41    1
    34    17    19    1
    35    17    21    1
    36    17    29    1
    37    18    23    1
    38    18    33    1
    39    19    34    1
    40    19    35    1
    41    20    28    1
    42    20    30    1
    43    21    22    1
    44    21    42    1
    45    22    43    1
    46    22    44    1
    47    23    25    1
    48    23    45    1
    49    25    46    1
    50    25    47    1
    51    26    31    1
    52    26    36    1
    53    26    48    1
    54    27    28    1
    55    27    49    1
    56    27    50    1
    57    28    51    1
    58    28    52    1
    59    29    37    1
    60    29    53    1
    61    29    54    1
    62    31    55    1
    63    31    56    1
    64    32    57    1
    65    32    58    1
    66    32    59    1
    67    33    60    1
    68    33    61    1
    69    33    62    1
    70    34    63    1
    71    34    64    1
    72    34    65    1
    73    35    38    1
    74    37    38    2
    75    37    67    1
    76    38    68    1
