@<TRIPOS>MOLECULE
IMPHY016023
 26 27 0 0 0
SMALL
GASTEIGER

@<TRIPOS>ATOM
      1 C           2.4736   -0.0329    0.0000 C.3     1  UNL1       -0.0255
      2 C           3.6137    0.9242    0.0000 C.3     1  UNL1       -0.0345
      3 C           3.8725   -0.0417    0.0000 C.3     1  UNL1       -0.0145
      4 C           4.3503    1.9068    0.0000 C.3     1  UNL1       -0.0427
      5 C           5.6469    0.6130    0.0000 C.3     1  UNL1       -0.0460
      6 C           5.0935   -0.9074    0.0000 C.2     1  UNL1       -0.0730
      7 C           5.9226   -0.3482    0.0000 C.3     1  UNL1       -0.0314
      8 C           1.6075    0.4671    0.0000 C.3     1  UNL1       -0.0590
      9 C           1.9736   -0.8990    0.0000 C.3     1  UNL1       -0.0590
     10 C           5.0586   -1.9068    0.0000 C.2     1  UNL1       -0.0992
     11 H           3.3937    1.7452    0.0000 H       1  UNL1        0.0306
     12 H           4.0925   -0.8628    0.0000 H       1  UNL1        0.0351
     13 H           4.0325    2.4392    0.0000 H       1  UNL1        0.0274
     14 H           4.9634    1.9988    0.0000 H       1  UNL1        0.0274
     15 H           5.6520    1.2330    0.0000 H       1  UNL1        0.0271
     16 H           6.2612    0.6968    0.0000 H       1  UNL1        0.0271
     17 H           6.4974   -0.1160    0.0000 H       1  UNL1        0.0310
     18 H           6.2136   -0.8956    0.0000 H       1  UNL1        0.0310
     19 H           2.5105   -1.2090    0.0000 H       1  UNL1        0.0235
     20 H           1.6636   -1.4359    0.0000 H       1  UNL1        0.0235
     21 H           1.4366   -0.5890    0.0000 H       1  UNL1        0.0235
     22 H           1.2975   -0.0699    0.0000 H       1  UNL1        0.0235
     23 H           1.0706    0.7771    0.0000 H       1  UNL1        0.0235
     24 H           1.9175    1.0040    0.0000 H       1  UNL1        0.0235
     25 H           5.5844   -2.2354    0.0000 H       1  UNL1        0.0534
     26 H           4.5112   -2.1979    0.0000 H       1  UNL1        0.0534
@<TRIPOS>BOND
     1     1     2    1
     2     1     3    1
     3     1     8    1
     4     1     9    1
     5     2     4    1
     6     2     5    1
     7     2    11    1
     8     3     4    1
     9     3     6    1
    10     3    12    1
    11     4    13    1
    12     4    14    1
    13     5     7    1
    14     5    15    1
    15     5    16    1
    16     6     7    1
    17     6    10    2
    18     7    17    1
    19     7    18    1
    20     8    22    1
    21     8    23    1
    22     8    24    1
    23     9    19    1
    24     9    20    1
    25     9    21    1
    26    10    25    1
    27    10    26    1
