@<TRIPOS>MOLECULE
IMPHY013918
 102 107 0 0 0
SMALL
GASTEIGER

@<TRIPOS>ATOM
      1 O          11.2303    2.5221    0.0000 O.3     1  UNL1       -0.3877
      2 O           9.4651   -2.6815    0.0000 O.3     1  UNL1       -0.3454
      3 O           8.0514    5.0198    0.0000 O.2     1  UNL1       -0.2974
      4 O           7.7331   -2.6815    0.0000 O.3     1  UNL1       -0.3431
      5 O           9.4651   -4.6815    0.0000 O.3     1  UNL1       -0.3841
      6 O           7.7331   -5.6815    0.0000 O.3     1  UNL1       -0.3744
      7 O           6.0010   -4.6815    0.0000 O.3     1  UNL1       -0.3402
      8 O           5.1350   -3.1815    0.0000 O.3     1  UNL1       -0.3405
      9 O           4.2690   -5.6815    0.0000 O.3     1  UNL1       -0.3841
     10 O           2.5369   -4.6815    0.0000 O.3     1  UNL1       -0.3864
     11 O           2.5369   -2.6815    0.0000 O.3     1  UNL1       -0.3865
     12 O           5.1350   -1.1815    0.0000 O.3     1  UNL1       -0.3924
     13 C          10.3662    2.0188    0.0000 C.3     1  UNL1       -0.0083
     14 C          10.3623    3.0188    0.0000 C.3     1  UNL1        0.0752
     15 C           9.5021    1.5154    0.0000 C.3     1  UNL1       -0.0299
     16 C           9.4944    3.5154    0.0000 C.3     1  UNL1        0.0065
     17 C           9.4901    0.4739    0.0000 C.3     1  UNL1       -0.0259
     18 C          10.3901   -0.0504    0.0000 C.3     1  UNL1       -0.0330
     19 C           8.6342    2.0121    0.0000 C.3     1  UNL1       -0.0488
     20 C           8.6303    3.0121    0.0000 C.3     1  UNL1       -0.0441
     21 C           9.6999    4.4880    0.0000 C.3     1  UNL1        0.0253
     22 C          11.2781    1.5154    0.0000 C.3     1  UNL1       -0.0470
     23 C          11.0968    3.6887    0.0000 C.3     1  UNL1       -0.0225
     24 C          11.2902    0.4739    0.0000 C.3     1  UNL1       -0.0493
     25 C          10.6882    4.5949    0.0000 C.3     1  UNL1       -0.0403
     26 C           8.5402   -0.0504    0.0000 C.3     1  UNL1       -0.0448
     27 C          10.4027   -1.1354    0.0000 C.3     1  UNL1       -0.0232
     28 C           8.6264    4.0121    0.0000 C.3     1  UNL1       -0.0563
     29 C           8.6260    0.9772    0.0000 C.3     1  UNL1       -0.0590
     30 C           8.5276   -1.1354    0.0000 C.3     1  UNL1       -0.0260
     31 C           9.4651   -1.6815    0.0000 C.3     1  UNL1        0.0621
     32 C           9.0292    5.2298    0.0000 C.2     1  UNL1        0.1340
     33 C           9.3361    6.1815    0.0000 C.3     1  UNL1       -0.0058
     34 C           8.5991   -3.1815    0.0000 C.3     1  UNL1        0.1881
     35 C           8.5991   -4.1815    0.0000 C.3     1  UNL1        0.1344
     36 C           7.7331   -4.6815    0.0000 C.3     1  UNL1        0.1174
     37 C           6.8671   -3.1815    0.0000 C.3     1  UNL1        0.0877
     38 C           6.8671   -4.1815    0.0000 C.3     1  UNL1        0.1162
     39 C           6.0010   -2.6815    0.0000 C.3     1  UNL1       -0.0360
     40 C           5.1350   -4.1815    0.0000 C.3     1  UNL1        0.1884
     41 C           8.5991   -6.1815    0.0000 C.3     1  UNL1        0.0370
     42 C           4.2690   -4.6815    0.0000 C.3     1  UNL1        0.1341
     43 C           3.4030   -4.1815    0.0000 C.3     1  UNL1        0.1141
     44 C           4.2690   -2.6815    0.0000 C.3     1  UNL1        0.1130
     45 C           3.4030   -3.1815    0.0000 C.3     1  UNL1        0.1119
     46 C           4.2690   -1.6815    0.0000 C.3     1  UNL1        0.0730
     47 H          10.8995    2.3350    0.0000 H       1  UNL1        0.0331
     48 H          10.0378    1.2034    0.0000 H       1  UNL1        0.0310
     49 H          10.9294   -0.3563    0.0000 H       1  UNL1        0.0307
     50 H           8.0232    2.1174    0.0000 H       1  UNL1        0.0268
     51 H           8.4244    1.4287    0.0000 H       1  UNL1        0.0268
     52 H           8.4160    3.5939    0.0000 H       1  UNL1        0.0272
     53 H           8.0201    2.9021    0.0000 H       1  UNL1        0.0272
     54 H           9.9206    5.0674    0.0000 H       1  UNL1        0.0383
     55 H          11.8902    1.4164    0.0000 H       1  UNL1        0.0269
     56 H          11.4804    2.1015    0.0000 H       1  UNL1        0.0269
     57 H          11.4642    3.1892    0.0000 H       1  UNL1        0.0293
     58 H          11.6321    4.0015    0.0000 H       1  UNL1        0.0293
     59 H          11.5060   -0.1074    0.0000 H       1  UNL1        0.0268
     60 H          11.8998    0.5870    0.0000 H       1  UNL1        0.0268
     61 H          11.2770    4.7889    0.0000 H       1  UNL1        0.0273
     62 H          10.5571    5.2009    0.0000 H       1  UNL1        0.0273
     63 H           8.3379    0.5356    0.0000 H       1  UNL1        0.0271
     64 H           7.9281   -0.1494    0.0000 H       1  UNL1        0.0271
     65 H          10.6185   -1.7166    0.0000 H       1  UNL1        0.0293
     66 H          11.0123   -1.0222    0.0000 H       1  UNL1        0.0293
     67 H           8.9344    4.5502    0.0000 H       1  UNL1        0.0236
     68 H           8.0883    4.3200    0.0000 H       1  UNL1        0.0236
     69 H           8.3185    3.4739    0.0000 H       1  UNL1        0.0236
     70 H           8.9380    1.5129    0.0000 H       1  UNL1        0.0235
     71 H           8.0902    1.2893    0.0000 H       1  UNL1        0.0235
     72 H           8.3139    0.4415    0.0000 H       1  UNL1        0.0235
     73 H           7.9180   -1.0222    0.0000 H       1  UNL1        0.0290
     74 H           8.3118   -1.7166    0.0000 H       1  UNL1        0.0290
     75 H          10.0027   -1.9904    0.0000 H       1  UNL1        0.0597
     76 H          11.7660    2.8342    0.0000 H       1  UNL1        0.2102
     77 H           9.9262    5.9911    0.0000 H       1  UNL1        0.0306
     78 H           9.5265    6.7715    0.0000 H       1  UNL1        0.0306
     79 H           8.7461    6.3718    0.0000 H       1  UNL1        0.0306
     80 H           8.5991   -2.5615    0.0000 H       1  UNL1        0.0937
     81 H           8.5991   -4.8015    0.0000 H       1  UNL1        0.0671
     82 H           7.1962   -4.9915    0.0000 H       1  UNL1        0.0650
     83 H           6.8671   -2.5615    0.0000 H       1  UNL1        0.0621
     84 H           6.3301   -3.8715    0.0000 H       1  UNL1        0.0650
     85 H          10.0021   -4.3715    0.0000 H       1  UNL1        0.2101
     86 H           6.3110   -2.1445    0.0000 H       1  UNL1        0.0255
     87 H           5.4641   -2.3715    0.0000 H       1  UNL1        0.0255
     88 H           5.6910   -3.2184    0.0000 H       1  UNL1        0.0255
     89 H           5.1350   -4.8015    0.0000 H       1  UNL1        0.0938
     90 H           8.2891   -6.7184    0.0000 H       1  UNL1        0.0524
     91 H           9.1360   -6.4915    0.0000 H       1  UNL1        0.0524
     92 H           8.9091   -5.6445    0.0000 H       1  UNL1        0.0524
     93 H           3.7320   -4.9915    0.0000 H       1  UNL1        0.0671
     94 H           2.8660   -3.8715    0.0000 H       1  UNL1        0.0648
     95 H           4.8059   -2.3715    0.0000 H       1  UNL1        0.0647
     96 H           3.4030   -2.5615    0.0000 H       1  UNL1        0.0647
     97 H           3.7320   -5.9915    0.0000 H       1  UNL1        0.2101
     98 H           4.0569   -1.0989    0.0000 H       1  UNL1        0.0584
     99 H           3.6584   -1.7891    0.0000 H       1  UNL1        0.0584
    100 H           2.0000   -4.3715    0.0000 H       1  UNL1        0.2100
    101 H           2.5369   -2.0615    0.0000 H       1  UNL1        0.2100
    102 H           5.1350   -0.5615    0.0000 H       1  UNL1        0.2095
@<TRIPOS>BOND
     1     1    14    1
     2     1    76    1
     3     2    31    1
     4     2    34    1
     5     3    32    2
     6     4    34    1
     7     4    37    1
     8     5    35    1
     9     5    85    1
    10     6    36    1
    11     6    41    1
    12     7    38    1
    13     7    40    1
    14     8    40    1
    15     8    44    1
    16     9    42    1
    17     9    97    1
    18    10    43    1
    19    10   100    1
    20    11    45    1
    21    11   101    1
    22    12    46    1
    23    12   102    1
    24    13    14    1
    25    13    15    1
    26    13    22    1
    27    13    47    1
    28    14    16    1
    29    14    23    1
    30    15    17    1
    31    15    19    1
    32    15    48    1
    33    16    20    1
    34    16    21    1
    35    16    28    1
    36    17    18    1
    37    17    26    1
    38    17    29    1
    39    18    24    1
    40    18    27    1
    41    18    49    1
    42    19    20    1
    43    19    50    1
    44    19    51    1
    45    20    52    1
    46    20    53    1
    47    21    25    1
    48    21    32    1
    49    21    54    1
    50    22    24    1
    51    22    55    1
    52    22    56    1
    53    23    25    1
    54    23    57    1
    55    23    58    1
    56    24    59    1
    57    24    60    1
    58    25    61    1
    59    25    62    1
    60    26    30    1
    61    26    63    1
    62    26    64    1
    63    27    31    1
    64    27    65    1
    65    27    66    1
    66    28    67    1
    67    28    68    1
    68    28    69    1
    69    29    70    1
    70    29    71    1
    71    29    72    1
    72    30    31    1
    73    30    73    1
    74    30    74    1
    75    31    75    1
    76    32    33    1
    77    33    77    1
    78    33    78    1
    79    33    79    1
    80    34    35    1
    81    34    80    1
    82    35    36    1
    83    35    81    1
    84    36    38    1
    85    36    82    1
    86    37    38    1
    87    37    39    1
    88    37    83    1
    89    38    84    1
    90    39    86    1
    91    39    87    1
    92    39    88    1
    93    40    42    1
    94    40    89    1
    95    41    90    1
    96    41    91    1
    97    41    92    1
    98    42    43    1
    99    42    93    1
   100    43    45    1
   101    43    94    1
   102    44    45    1
   103    44    46    1
   104    44    95    1
   105    45    96    1
   106    46    98    1
   107    46    99    1
