@<TRIPOS>MOLECULE
IMPHY001075
 85 84 0 0 0
SMALL
GASTEIGER

@<TRIPOS>ATOM
      1 O          18.4545   -0.5950    0.0000 O.3     1  UNL1       -0.3917
      2 O          20.1865   -0.5950    0.0000 O.3     1  UNL1       -0.3917
      3 C          18.4545    0.4050    0.0000 C.3     1  UNL1        0.0576
      4 C          17.5885    0.9050    0.0000 C.3     1  UNL1       -0.0268
      5 C          16.7224    0.4050    0.0000 C.3     1  UNL1       -0.0507
      6 C          15.8564    0.9050    0.0000 C.3     1  UNL1       -0.0530
      7 C          14.9904    0.4050    0.0000 C.3     1  UNL1       -0.0531
      8 C          19.3205    0.9050    0.0000 C.3     1  UNL1       -0.0007
      9 C          14.1244    0.9050    0.0000 C.3     1  UNL1       -0.0531
     10 C          13.2583    0.4050    0.0000 C.3     1  UNL1       -0.0531
     11 C          12.3923    0.9050    0.0000 C.3     1  UNL1       -0.0531
     12 C          11.5263    0.4050    0.0000 C.3     1  UNL1       -0.0531
     13 C          20.1865    0.4050    0.0000 C.3     1  UNL1        0.0576
     14 C          10.6603    0.9050    0.0000 C.3     1  UNL1       -0.0531
     15 C           9.7942    0.4050    0.0000 C.3     1  UNL1       -0.0531
     16 C           8.9282    0.9050    0.0000 C.3     1  UNL1       -0.0531
     17 C          21.0526    0.9050    0.0000 C.3     1  UNL1       -0.0268
     18 C           8.0622    0.4050    0.0000 C.3     1  UNL1       -0.0531
     19 C           7.1962    0.9050    0.0000 C.3     1  UNL1       -0.0531
     20 C           6.3301    0.4050    0.0000 C.3     1  UNL1       -0.0531
     21 C          21.9186    0.4050    0.0000 C.3     1  UNL1       -0.0507
     22 C           5.4641    0.9050    0.0000 C.3     1  UNL1       -0.0531
     23 C          22.7846    0.9050    0.0000 C.3     1  UNL1       -0.0532
     24 C           4.5981    0.4050    0.0000 C.3     1  UNL1       -0.0531
     25 C           3.7320    0.9050    0.0000 C.3     1  UNL1       -0.0533
     26 C          23.6506    0.4050    0.0000 C.3     1  UNL1       -0.0559
     27 C           2.8660    0.4050    0.0000 C.3     1  UNL1       -0.0559
     28 C          24.5167    0.9050    0.0000 C.3     1  UNL1       -0.0653
     29 C           2.0000    0.9050    0.0000 C.3     1  UNL1       -0.0653
     30 H          17.7184   -0.0200    0.0000 H       1  UNL1        0.0594
     31 H          17.9870    1.3800    0.0000 H       1  UNL1        0.0290
     32 H          17.1899    1.3800    0.0000 H       1  UNL1        0.0290
     33 H          16.3239   -0.0699    0.0000 H       1  UNL1        0.0266
     34 H          17.1210   -0.0699    0.0000 H       1  UNL1        0.0266
     35 H          16.2549    1.3800    0.0000 H       1  UNL1        0.0265
     36 H          15.4579    1.3800    0.0000 H       1  UNL1        0.0265
     37 H          14.5919   -0.0699    0.0000 H       1  UNL1        0.0265
     38 H          15.3889   -0.0699    0.0000 H       1  UNL1        0.0265
     39 H          19.7190    1.3800    0.0000 H       1  UNL1        0.0315
     40 H          18.9220    1.3800    0.0000 H       1  UNL1        0.0315
     41 H          14.5229    1.3800    0.0000 H       1  UNL1        0.0265
     42 H          13.7258    1.3800    0.0000 H       1  UNL1        0.0265
     43 H          12.8598   -0.0699    0.0000 H       1  UNL1        0.0265
     44 H          13.6569   -0.0699    0.0000 H       1  UNL1        0.0265
     45 H          12.7908    1.3800    0.0000 H       1  UNL1        0.0265
     46 H          11.9938    1.3800    0.0000 H       1  UNL1        0.0265
     47 H          19.4504   -0.0200    0.0000 H       1  UNL1        0.0594
     48 H          11.1278   -0.0699    0.0000 H       1  UNL1        0.0265
     49 H          11.9248   -0.0699    0.0000 H       1  UNL1        0.0265
     50 H          11.0588    1.3800    0.0000 H       1  UNL1        0.0265
     51 H          10.2617    1.3800    0.0000 H       1  UNL1        0.0265
     52 H           9.3957   -0.0699    0.0000 H       1  UNL1        0.0265
     53 H          10.1928   -0.0699    0.0000 H       1  UNL1        0.0265
     54 H           9.3267    1.3800    0.0000 H       1  UNL1        0.0265
     55 H           8.5297    1.3800    0.0000 H       1  UNL1        0.0265
     56 H          21.4511    1.3800    0.0000 H       1  UNL1        0.0290
     57 H          20.6540    1.3800    0.0000 H       1  UNL1        0.0290
     58 H           7.6636   -0.0699    0.0000 H       1  UNL1        0.0265
     59 H           8.4607   -0.0699    0.0000 H       1  UNL1        0.0265
     60 H           7.5947    1.3800    0.0000 H       1  UNL1        0.0265
     61 H           6.7976    1.3800    0.0000 H       1  UNL1        0.0265
     62 H           5.9316   -0.0699    0.0000 H       1  UNL1        0.0265
     63 H           6.7287   -0.0699    0.0000 H       1  UNL1        0.0265
     64 H          21.5201   -0.0699    0.0000 H       1  UNL1        0.0266
     65 H          22.3171   -0.0699    0.0000 H       1  UNL1        0.0266
     66 H           5.8626    1.3800    0.0000 H       1  UNL1        0.0265
     67 H           5.0656    1.3800    0.0000 H       1  UNL1        0.0265
     68 H          23.1831    1.3800    0.0000 H       1  UNL1        0.0265
     69 H          22.3861    1.3800    0.0000 H       1  UNL1        0.0265
     70 H           4.1996   -0.0699    0.0000 H       1  UNL1        0.0265
     71 H           4.9966   -0.0699    0.0000 H       1  UNL1        0.0265
     72 H          17.9175   -0.9050    0.0000 H       1  UNL1        0.2098
     73 H           4.1306    1.3800    0.0000 H       1  UNL1        0.0265
     74 H           3.3335    1.3800    0.0000 H       1  UNL1        0.0265
     75 H          20.7235   -0.9050    0.0000 H       1  UNL1        0.2098
     76 H          23.2521   -0.0699    0.0000 H       1  UNL1        0.0263
     77 H          24.0492   -0.0699    0.0000 H       1  UNL1        0.0263
     78 H           2.4675   -0.0699    0.0000 H       1  UNL1        0.0263
     79 H           3.2646   -0.0699    0.0000 H       1  UNL1        0.0263
     80 H          24.8267    0.3681    0.0000 H       1  UNL1        0.0230
     81 H          25.0536    1.2150    0.0000 H       1  UNL1        0.0230
     82 H          24.2067    1.4419    0.0000 H       1  UNL1        0.0230
     83 H           2.3100    1.4419    0.0000 H       1  UNL1        0.0230
     84 H           1.4631    1.2150    0.0000 H       1  UNL1        0.0230
     85 H           1.6900    0.3681    0.0000 H       1  UNL1        0.0230
@<TRIPOS>BOND
     1     1     3    1
     2     1    72    1
     3     2    13    1
     4     2    75    1
     5     3     4    1
     6     3     8    1
     7     3    30    1
     8     4     5    1
     9     4    31    1
    10     4    32    1
    11     5     6    1
    12     5    33    1
    13     5    34    1
    14     6     7    1
    15     6    35    1
    16     6    36    1
    17     7     9    1
    18     7    37    1
    19     7    38    1
    20     8    13    1
    21     8    39    1
    22     8    40    1
    23     9    10    1
    24     9    41    1
    25     9    42    1
    26    10    11    1
    27    10    43    1
    28    10    44    1
    29    11    12    1
    30    11    45    1
    31    11    46    1
    32    12    14    1
    33    12    48    1
    34    12    49    1
    35    13    17    1
    36    13    47    1
    37    14    15    1
    38    14    50    1
    39    14    51    1
    40    15    16    1
    41    15    52    1
    42    15    53    1
    43    16    18    1
    44    16    54    1
    45    16    55    1
    46    17    21    1
    47    17    56    1
    48    17    57    1
    49    18    19    1
    50    18    58    1
    51    18    59    1
    52    19    20    1
    53    19    60    1
    54    19    61    1
    55    20    22    1
    56    20    62    1
    57    20    63    1
    58    21    23    1
    59    21    64    1
    60    21    65    1
    61    22    24    1
    62    22    66    1
    63    22    67    1
    64    23    26    1
    65    23    68    1
    66    23    69    1
    67    24    25    1
    68    24    70    1
    69    24    71    1
    70    25    27    1
    71    25    73    1
    72    25    74    1
    73    26    28    1
    74    26    76    1
    75    26    77    1
    76    27    29    1
    77    27    78    1
    78    27    79    1
    79    28    80    1
    80    28    81    1
    81    28    82    1
    82    29    83    1
    83    29    84    1
    84    29    85    1
