@<TRIPOS>MOLECULE
IMPHY007159
 64 66 0 0 0
SMALL
GASTEIGER

@<TRIPOS>ATOM
      1 O           9.4893   -0.4861    0.0000 O.3     1  UNL1       -0.4579
      2 O           6.0010    0.4050    0.0000 O.2     1  UNL1       -0.4701
      3 O           8.9900    2.6602    0.0000 O.3     1  UNL1       -0.4608
      4 O           6.8671   -1.0950    0.0000 O.3     1  UNL1       -0.3094
      5 O           5.1350   -1.0950    0.0000 O.3     1  UNL1       -0.3404
      6 O           6.0010    3.4050    0.0000 O.3     1  UNL1       -0.4646
      7 O           6.8671   -3.0950    0.0000 O.3     1  UNL1       -0.3841
      8 O           7.7331    3.4050    0.0000 O.2     1  UNL1       -0.2452
      9 O           5.1350   -4.0950    0.0000 O.3     1  UNL1       -0.3864
     10 O           3.4030   -3.0950    0.0000 O.3     1  UNL1       -0.3865
     11 O          10.5050    0.9169    0.0000 O.2     1  UNL1       -0.2511
     12 O          10.6363    2.1222    0.0000 O.2     1  UNL1       -0.2512
     13 O           2.5369   -1.5950    0.0000 O.3     1  UNL1       -0.3924
     14 C           7.7331    0.4050    0.0000 C.3     1  UNL1        0.0717
     15 C           8.6793    0.1003    0.0000 C.3     1  UNL1        0.1233
     16 C           7.7331    1.4050    0.0000 C.3     1  UNL1        0.0432
     17 C           8.6793    1.7097    0.0000 C.3     1  UNL1        0.1143
     18 C           9.2629    0.9050    0.0000 C.3     1  UNL1        0.0252
     19 C           6.8671   -0.0950    0.0000 C.3     1  UNL1        0.2106
     20 C           6.8671    1.9050    0.0000 C.2     1  UNL1        0.0779
     21 C           8.3719   -0.8513    0.0000 C.3     1  UNL1       -0.0242
     22 C           6.0010    1.4050    0.0000 C.2     1  UNL1        0.0982
     23 C           6.0010   -1.5950    0.0000 C.3     1  UNL1        0.1918
     24 C           6.8671    2.9050    0.0000 C.2     1  UNL1        0.3382
     25 C           6.0010   -2.5950    0.0000 C.3     1  UNL1        0.1342
     26 C           5.1350   -3.0950    0.0000 C.3     1  UNL1        0.1141
     27 C          10.4022   -0.0778    0.0000 C.2     1  UNL1        0.3045
     28 C           4.2690   -2.5950    0.0000 C.3     1  UNL1        0.1119
     29 C           4.2690   -1.5950    0.0000 C.3     1  UNL1        0.1130
     30 C           9.9685    2.8665    0.0000 C.2     1  UNL1        0.3042
     31 C           3.4030   -1.0950    0.0000 C.3     1  UNL1        0.0730
     32 C          11.2122   -0.6642    0.0000 C.3     1  UNL1        0.0333
     33 C          10.2791    3.8170    0.0000 C.3     1  UNL1        0.0332
     34 C           6.0010    4.4050    0.0000 C.3     1  UNL1        0.0820
     35 H           7.8230   -0.4402    0.0000 H       1  UNL1        0.0407
     36 H           7.8230    2.2502    0.0000 H       1  UNL1        0.0394
     37 H           8.2418    2.1491    0.0000 H       1  UNL1        0.0741
     38 H           9.7238    0.4903    0.0000 H       1  UNL1        0.0340
     39 H           9.7238    1.3197    0.0000 H       1  UNL1        0.0340
     40 H           7.4040   -0.4050    0.0000 H       1  UNL1        0.1060
     41 H           7.7820   -0.6608    0.0000 H       1  UNL1        0.0268
     42 H           8.1814   -1.4413    0.0000 H       1  UNL1        0.0268
     43 H           8.9619   -1.0419    0.0000 H       1  UNL1        0.0268
     44 H           5.4641    1.7150    0.0000 H       1  UNL1        0.1029
     45 H           6.0010   -0.9750    0.0000 H       1  UNL1        0.0939
     46 H           6.0010   -3.2150    0.0000 H       1  UNL1        0.0671
     47 H           4.5981   -3.4050    0.0000 H       1  UNL1        0.0648
     48 H           3.7320   -2.2850    0.0000 H       1  UNL1        0.0647
     49 H           4.2690   -0.9750    0.0000 H       1  UNL1        0.0647
     50 H           3.8015   -0.6201    0.0000 H       1  UNL1        0.0584
     51 H           3.0044   -0.6201    0.0000 H       1  UNL1        0.0584
     52 H          10.8487   -1.1664    0.0000 H       1  UNL1        0.0342
     53 H          11.7144   -1.0277    0.0000 H       1  UNL1        0.0342
     54 H          11.5758   -0.1620    0.0000 H       1  UNL1        0.0342
     55 H           6.8671   -3.7150    0.0000 H       1  UNL1        0.2101
     56 H          10.8685    3.6244    0.0000 H       1  UNL1        0.0342
     57 H          10.4717    4.4063    0.0000 H       1  UNL1        0.0342
     58 H           9.6898    4.0096    0.0000 H       1  UNL1        0.0342
     59 H           4.5981   -4.4050    0.0000 H       1  UNL1        0.2100
     60 H           3.4030   -3.7150    0.0000 H       1  UNL1        0.2100
     61 H           6.6210    4.4050    0.0000 H       1  UNL1        0.0661
     62 H           6.0010    5.0250    0.0000 H       1  UNL1        0.0661
     63 H           5.3810    4.4050    0.0000 H       1  UNL1        0.0661
     64 H           2.0000   -1.2850    0.0000 H       1  UNL1        0.2095
@<TRIPOS>BOND
     1    15     1    1
     2     1    27    1
     3     2    19    1
     4     2    22    1
     5    17     3    1
     6     3    30    1
     7    19     4    1
     8    23     4    1
     9     5    23    1
    10     5    29    1
    11     6    24    1
    12     6    34    1
    13    25     7    1
    14     7    55    1
    15     8    24    2
    16    26     9    1
    17     9    59    1
    18    28    10    1
    19    10    60    1
    20    11    27    2
    21    12    30    2
    22    13    31    1
    23    13    64    1
    24    14    15    1
    25    14    16    1
    26    14    19    1
    27    14    35    1
    28    15    18    1
    29    15    21    1
    30    16    17    1
    31    16    20    1
    32    16    36    1
    33    17    18    1
    34    17    37    1
    35    18    38    1
    36    18    39    1
    37    19    40    1
    38    20    22    2
    39    20    24    1
    40    21    41    1
    41    21    42    1
    42    21    43    1
    43    22    44    1
    44    23    25    1
    45    23    45    1
    46    25    26    1
    47    25    46    1
    48    26    28    1
    49    26    47    1
    50    27    32    1
    51    28    29    1
    52    28    48    1
    53    29    31    1
    54    29    49    1
    55    30    33    1
    56    31    50    1
    57    31    51    1
    58    32    52    1
    59    32    53    1
    60    32    54    1
    61    33    56    1
    62    33    57    1
    63    33    58    1
    64    34    61    1
    65    34    62    1
    66    34    63    1
