@<TRIPOS>MOLECULE
IMPHY009876
 24 24 0 0 0
SMALL
GASTEIGER

@<TRIPOS>ATOM
      1 C           2.8660    1.0000    0.0000 C.ar    1  UNL1       -0.0476
      2 C           2.8660   -1.0000    0.0000 C.ar    1  UNL1       -0.0476
      3 C           2.8660    2.0000    0.0000 C.3     1  UNL1       -0.0305
      4 C           2.8660   -2.0000    0.0000 C.3     1  UNL1       -0.0305
      5 C           2.0000    0.5000    0.0000 C.ar    1  UNL1       -0.0583
      6 C           2.0000   -0.5000    0.0000 C.ar    1  UNL1       -0.0583
      7 C           3.7320    0.5000    0.0000 C.ar    1  UNL1       -0.0583
      8 C           3.7320   -0.5000    0.0000 C.ar    1  UNL1       -0.0583
      9 C           3.7320    2.5000    0.0000 C.3     1  UNL1       -0.0613
     10 C           2.0000   -2.5000    0.0000 C.3     1  UNL1       -0.0613
     11 H           2.6540    2.5826    0.0000 H       1  UNL1        0.0311
     12 H           2.2554    1.8923    0.0000 H       1  UNL1        0.0311
     13 H           3.0781   -2.5826    0.0000 H       1  UNL1        0.0311
     14 H           3.4766   -1.8923    0.0000 H       1  UNL1        0.0311
     15 H           1.4631    0.8100    0.0000 H       1  UNL1        0.0620
     16 H           1.4631   -0.8100    0.0000 H       1  UNL1        0.0620
     17 H           4.2690    0.8100    0.0000 H       1  UNL1        0.0620
     18 H           4.2690   -0.8100    0.0000 H       1  UNL1        0.0620
     19 H           4.0420    1.9631    0.0000 H       1  UNL1        0.0233
     20 H           4.2690    2.8100    0.0000 H       1  UNL1        0.0233
     21 H           3.4220    3.0369    0.0000 H       1  UNL1        0.0233
     22 H           1.6900   -1.9631    0.0000 H       1  UNL1        0.0233
     23 H           1.4631   -2.8100    0.0000 H       1  UNL1        0.0233
     24 H           2.3100   -3.0369    0.0000 H       1  UNL1        0.0233
@<TRIPOS>BOND
     1     1     3    1
     2     1     5   ar
     3     1     7   ar
     4     2     4    1
     5     2     6   ar
     6     2     8   ar
     7     3     9    1
     8     3    11    1
     9     3    12    1
    10     4    10    1
    11     4    13    1
    12     4    14    1
    13     5     6   ar
    14     5    15    1
    15     6    16    1
    16     7     8   ar
    17     7    17    1
    18     8    18    1
    19     9    19    1
    20     9    20    1
    21     9    21    1
    22    10    22    1
    23    10    23    1
    24    10    24    1
