@<TRIPOS>MOLECULE
IMPHY017517
 33 33 0 0 0
SMALL
GASTEIGER

@<TRIPOS>ATOM
      1 O           8.3916   -1.7699    0.0000 O.3     1  UNL1       -0.3865
      2 O           6.8038   -2.5789    0.0000 O.2     1  UNL1       -0.2448
      3 O           9.6517   -0.5098    0.0000 O.2     1  UNL1       -0.2448
      4 O           8.7576    2.2689    0.0000 O.3     1  UNL1       -0.4804
      5 O           9.6237    0.7689    0.0000 O.2     1  UNL1       -0.2506
      6 C           5.3884   -1.1790    0.0000 C.3     1  UNL1       -0.0488
      7 C           4.4374   -0.8700    0.0000 C.3     1  UNL1       -0.0528
      8 C           6.1316   -0.5098    0.0000 C.3     1  UNL1       -0.0204
      9 C           3.6942   -1.5391    0.0000 C.3     1  UNL1       -0.0533
     10 C           7.0826   -0.8189    0.0000 C.2     1  UNL1        0.0475
     11 C           2.7431   -1.2301    0.0000 C.3     1  UNL1       -0.0559
     12 C           7.8916   -0.2311    0.0000 C.2     1  UNL1        0.0576
     13 C           7.3916   -1.7699    0.0000 C.2     1  UNL1        0.3432
     14 C           7.8916    0.7689    0.0000 C.3     1  UNL1        0.0771
     15 C           2.0000   -1.8992    0.0000 C.3     1  UNL1       -0.0653
     16 C           8.7006   -0.8189    0.0000 C.2     1  UNL1        0.3437
     17 C           8.7576    1.2689    0.0000 C.2     1  UNL1        0.3093
     18 H           5.0973   -1.7264    0.0000 H       1  UNL1        0.0268
     19 H           5.8770   -1.5607    0.0000 H       1  UNL1        0.0268
     20 H           4.7284   -0.3225    0.0000 H       1  UNL1        0.0265
     21 H           3.9488   -0.4882    0.0000 H       1  UNL1        0.0265
     22 H           6.4226    0.0376    0.0000 H       1  UNL1        0.0315
     23 H           5.6430   -0.1281    0.0000 H       1  UNL1        0.0315
     24 H           3.4031   -2.0865    0.0000 H       1  UNL1        0.0265
     25 H           4.1828   -1.9208    0.0000 H       1  UNL1        0.0265
     26 H           3.0342   -0.6826    0.0000 H       1  UNL1        0.0263
     27 H           2.2546   -0.8484    0.0000 H       1  UNL1        0.0263
     28 H           7.6796    1.3515    0.0000 H       1  UNL1        0.0429
     29 H           7.2810    0.6613    0.0000 H       1  UNL1        0.0429
     30 H           1.5851   -1.4384    0.0000 H       1  UNL1        0.0230
     31 H           1.5392   -2.3141    0.0000 H       1  UNL1        0.0230
     32 H           2.4149   -2.3600    0.0000 H       1  UNL1        0.0230
     33 H           9.2946    2.5789    0.0000 H       1  UNL1        0.2951
@<TRIPOS>BOND
     1     1    13    1
     2     1    16    1
     3     2    13    2
     4     3    16    2
     5     4    17    1
     6     4    33    1
     7     5    17    2
     8     6     7    1
     9     6     8    1
    10     6    18    1
    11     6    19    1
    12     7     9    1
    13     7    20    1
    14     7    21    1
    15     8    10    1
    16     8    22    1
    17     8    23    1
    18     9    11    1
    19     9    24    1
    20     9    25    1
    21    10    12    2
    22    10    13    1
    23    11    15    1
    24    11    26    1
    25    11    27    1
    26    12    14    1
    27    12    16    1
    28    14    17    1
    29    14    28    1
    30    14    29    1
    31    15    30    1
    32    15    31    1
    33    15    32    1
