@<TRIPOS>MOLECULE
IMPHY005727
 127 134 0 0 0
SMALL
GASTEIGER

@<TRIPOS>ATOM
      1 O          14.6944    2.0724    0.0000 O.3     1  UNL1       -0.3876
      2 O          14.6489    5.0132    0.0000 O.3     1  UNL1       -0.3911
      3 O          12.9292   -3.1311    0.0000 O.3     1  UNL1       -0.3454
      4 O          11.0903    5.5861    0.0000 O.3     1  UNL1       -0.4571
      5 O          11.1972   -3.1311    0.0000 O.3     1  UNL1       -0.3431
      6 O          11.7254    7.2511    0.0000 O.2     1  UNL1       -0.2456
      7 O          12.9292   -5.1311    0.0000 O.3     1  UNL1       -0.3841
      8 O          11.1972   -6.1311    0.0000 O.3     1  UNL1       -0.3744
      9 O           9.4651   -5.1311    0.0000 O.3     1  UNL1       -0.3402
     10 O           8.5991   -3.6311    0.0000 O.3     1  UNL1       -0.3405
     11 O           7.7331   -6.1311    0.0000 O.3     1  UNL1       -0.3841
     12 O           6.0010   -3.1311    0.0000 O.3     1  UNL1       -0.3401
     13 O           6.0010   -5.1311    0.0000 O.3     1  UNL1       -0.3864
     14 O           6.8671   -1.6311    0.0000 O.3     1  UNL1       -0.3924
     15 O           5.1350   -4.6311    0.0000 O.3     1  UNL1       -0.3405
     16 O           4.2690   -2.1311    0.0000 O.3     1  UNL1       -0.3841
     17 O           2.5369   -3.1311    0.0000 O.3     1  UNL1       -0.3864
     18 O           2.5369   -5.1311    0.0000 O.3     1  UNL1       -0.3865
     19 O           3.4030   -6.6311    0.0000 O.3     1  UNL1       -0.3924
     20 C          13.8264    2.5691    0.0000 C.3     1  UNL1        0.0775
     21 C          13.8303    1.5691    0.0000 C.3     1  UNL1       -0.0082
     22 C          12.9662    1.0658    0.0000 C.3     1  UNL1       -0.0299
     23 C          12.9585    3.0658    0.0000 C.3     1  UNL1        0.0060
     24 C          12.9542    0.0242    0.0000 C.3     1  UNL1       -0.0259
     25 C          13.8542   -0.5001    0.0000 C.3     1  UNL1       -0.0330
     26 C          13.1640    4.0384    0.0000 C.3     1  UNL1        0.0179
     27 C          12.0983    1.5624    0.0000 C.3     1  UNL1       -0.0488
     28 C          12.0944    2.5624    0.0000 C.3     1  UNL1       -0.0441
     29 C          14.5609    3.2390    0.0000 C.3     1  UNL1        0.0035
     30 C          14.7422    1.0658    0.0000 C.3     1  UNL1       -0.0470
     31 C          14.1523    4.1452    0.0000 C.3     1  UNL1        0.0651
     32 C          14.7543    0.0242    0.0000 C.3     1  UNL1       -0.0493
     33 C          12.0043   -0.5001    0.0000 C.3     1  UNL1       -0.0448
     34 C          12.0906    3.5624    0.0000 C.3     1  UNL1       -0.0563
     35 C          13.8668   -1.5850    0.0000 C.3     1  UNL1       -0.0232
     36 C          12.0901    0.5275    0.0000 C.3     1  UNL1       -0.0590
     37 C          11.9917   -1.5850    0.0000 C.3     1  UNL1       -0.0260
     38 C          12.9292   -2.1311    0.0000 C.3     1  UNL1        0.0621
     39 C          12.4932    4.7801    0.0000 C.2     1  UNL1       -0.0198
     40 C          11.4990    4.6734    0.0000 C.3     1  UNL1        0.1148
     41 C          12.6991    5.7587    0.0000 C.2     1  UNL1        0.0253
     42 C          11.8320    6.2568    0.0000 C.2     1  UNL1        0.3323
     43 C          12.0632   -3.6311    0.0000 C.3     1  UNL1        0.1881
     44 C          12.0632   -4.6311    0.0000 C.3     1  UNL1        0.1344
     45 C          11.1972   -5.1311    0.0000 C.3     1  UNL1        0.1174
     46 C          10.3312   -3.6311    0.0000 C.3     1  UNL1        0.0877
     47 C          10.3312   -4.6311    0.0000 C.3     1  UNL1        0.1162
     48 C           9.4651   -3.1311    0.0000 C.3     1  UNL1       -0.0360
     49 C           8.5991   -4.6311    0.0000 C.3     1  UNL1        0.1884
     50 C          12.0632   -6.6311    0.0000 C.3     1  UNL1        0.0370
     51 C           7.7331   -5.1311    0.0000 C.3     1  UNL1        0.1341
     52 C           6.8671   -4.6311    0.0000 C.3     1  UNL1        0.1144
     53 C           7.7331   -3.1311    0.0000 C.3     1  UNL1        0.1134
     54 C           6.8671   -3.6311    0.0000 C.3     1  UNL1        0.1184
     55 C           7.7331   -2.1311    0.0000 C.3     1  UNL1        0.0730
     56 C           5.1350   -3.6311    0.0000 C.3     1  UNL1        0.1884
     57 C           4.2690   -3.1311    0.0000 C.3     1  UNL1        0.1341
     58 C           3.4030   -3.6311    0.0000 C.3     1  UNL1        0.1141
     59 C           4.2690   -5.1311    0.0000 C.3     1  UNL1        0.1130
     60 C           3.4030   -4.6311    0.0000 C.3     1  UNL1        0.1119
     61 C           4.2690   -6.1311    0.0000 C.3     1  UNL1        0.0730
     62 H          14.5615    2.0026    0.0000 H       1  UNL1        0.0331
     63 H          13.7007    0.6379    0.0000 H       1  UNL1        0.0310
     64 H          14.5936   -0.9194    0.0000 H       1  UNL1        0.0307
     65 H          13.4665    4.8327    0.0000 H       1  UNL1        0.0378
     66 H          11.4873    1.6677    0.0000 H       1  UNL1        0.0268
     67 H          11.8885    0.9790    0.0000 H       1  UNL1        0.0268
     68 H          11.8801    3.1442    0.0000 H       1  UNL1        0.0272
     69 H          11.4842    2.4524    0.0000 H       1  UNL1        0.0272
     70 H          14.9283    2.7396    0.0000 H       1  UNL1        0.0318
     71 H          15.0962    3.5518    0.0000 H       1  UNL1        0.0318
     72 H          15.3543    0.9667    0.0000 H       1  UNL1        0.0269
     73 H          14.9445    1.6518    0.0000 H       1  UNL1        0.0269
     74 H          13.6869    4.8565    0.0000 H       1  UNL1        0.0600
     75 H          14.9701   -0.5570    0.0000 H       1  UNL1        0.0268
     76 H          15.3639    0.1373    0.0000 H       1  UNL1        0.0268
     77 H          11.8020    0.0860    0.0000 H       1  UNL1        0.0271
     78 H          11.3922   -0.5991    0.0000 H       1  UNL1        0.0271
     79 H          12.3985    4.1005    0.0000 H       1  UNL1        0.0236
     80 H          11.5524    3.8703    0.0000 H       1  UNL1        0.0236
     81 H          11.7826    3.0243    0.0000 H       1  UNL1        0.0236
     82 H          14.0826   -2.1662    0.0000 H       1  UNL1        0.0293
     83 H          14.4764   -1.4719    0.0000 H       1  UNL1        0.0293
     84 H          12.4021    1.0633    0.0000 H       1  UNL1        0.0235
     85 H          11.5543    0.8396    0.0000 H       1  UNL1        0.0235
     86 H          11.7780   -0.0082    0.0000 H       1  UNL1        0.0235
     87 H          11.3821   -1.4719    0.0000 H       1  UNL1        0.0290
     88 H          11.7759   -2.1662    0.0000 H       1  UNL1        0.0290
     89 H          12.1923   -2.5547    0.0000 H       1  UNL1        0.0597
     90 H          15.2301    2.3845    0.0000 H       1  UNL1        0.2102
     91 H          15.2689    5.0156    0.0000 H       1  UNL1        0.2098
     92 H          10.9097    4.4806    0.0000 H       1  UNL1        0.0746
     93 H          11.6291    4.0673    0.0000 H       1  UNL1        0.0746
     94 H          13.2649    6.0120    0.0000 H       1  UNL1        0.0689
     95 H          12.0632   -2.7811    0.0000 H       1  UNL1        0.0937
     96 H          12.0632   -5.4811    0.0000 H       1  UNL1        0.0671
     97 H          10.4611   -5.5561    0.0000 H       1  UNL1        0.0650
     98 H          10.3312   -2.7811    0.0000 H       1  UNL1        0.0621
     99 H           9.5950   -4.2061    0.0000 H       1  UNL1        0.0650
    100 H          13.4662   -4.8211    0.0000 H       1  UNL1        0.2101
    101 H           9.7751   -2.5942    0.0000 H       1  UNL1        0.0255
    102 H           8.9282   -2.8211    0.0000 H       1  UNL1        0.0255
    103 H           9.1551   -3.6681    0.0000 H       1  UNL1        0.0255
    104 H           8.5991   -5.4811    0.0000 H       1  UNL1        0.0938
    105 H          11.7532   -7.1681    0.0000 H       1  UNL1        0.0524
    106 H          12.6002   -6.9411    0.0000 H       1  UNL1        0.0524
    107 H          12.3732   -6.0942    0.0000 H       1  UNL1        0.0524
    108 H           6.9970   -5.5561    0.0000 H       1  UNL1        0.0671
    109 H           6.1309   -4.2061    0.0000 H       1  UNL1        0.0648
    110 H           8.4692   -2.7061    0.0000 H       1  UNL1        0.0647
    111 H           6.8671   -2.7811    0.0000 H       1  UNL1        0.0651
    112 H           8.2700   -6.4411    0.0000 H       1  UNL1        0.2101
    113 H           8.3437   -2.2388    0.0000 H       1  UNL1        0.0584
    114 H           7.9451   -1.5485    0.0000 H       1  UNL1        0.0584
    115 H           6.0010   -5.7511    0.0000 H       1  UNL1        0.2100
    116 H           5.1350   -2.7811    0.0000 H       1  UNL1        0.0938
    117 H           3.5329   -2.7061    0.0000 H       1  UNL1        0.0671
    118 H           4.1391   -4.0561    0.0000 H       1  UNL1        0.0648
    119 H           5.0051   -5.5561    0.0000 H       1  UNL1        0.0647
    120 H           3.4030   -5.4811    0.0000 H       1  UNL1        0.0647
    121 H           6.8671   -1.0111    0.0000 H       1  UNL1        0.2095
    122 H           4.4810   -6.7137    0.0000 H       1  UNL1        0.0584
    123 H           4.8796   -6.0235    0.0000 H       1  UNL1        0.0584
    124 H           3.7320   -1.8211    0.0000 H       1  UNL1        0.2101
    125 H           2.0000   -3.4411    0.0000 H       1  UNL1        0.2100
    126 H           2.0000   -4.8211    0.0000 H       1  UNL1        0.2100
    127 H           3.4030   -7.2511    0.0000 H       1  UNL1        0.2095
@<TRIPOS>BOND
     1     1    20    1
     2     1    90    1
     3     2    31    1
     4     2    91    1
     5     3    38    1
     6     3    43    1
     7     4    40    1
     8     4    42    1
     9     5    43    1
    10     5    46    1
    11     6    42    2
    12     7    44    1
    13     7   100    1
    14     8    45    1
    15     8    50    1
    16     9    47    1
    17     9    49    1
    18    10    49    1
    19    10    53    1
    20    11    51    1
    21    11   112    1
    22    12    54    1
    23    12    56    1
    24    13    52    1
    25    13   115    1
    26    14    55    1
    27    14   121    1
    28    15    56    1
    29    15    59    1
    30    16    57    1
    31    16   124    1
    32    17    58    1
    33    17   125    1
    34    18    60    1
    35    18   126    1
    36    19    61    1
    37    19   127    1
    38    20    21    1
    39    20    23    1
    40    20    29    1
    41    21    22    1
    42    21    30    1
    43    21    62    1
    44    22    24    1
    45    22    27    1
    46    22    63    1
    47    23    26    1
    48    23    28    1
    49    23    34    1
    50    24    25    1
    51    24    33    1
    52    24    36    1
    53    25    32    1
    54    25    35    1
    55    25    64    1
    56    26    31    1
    57    26    39    1
    58    26    65    1
    59    27    28    1
    60    27    66    1
    61    27    67    1
    62    28    68    1
    63    28    69    1
    64    29    31    1
    65    29    70    1
    66    29    71    1
    67    30    32    1
    68    30    72    1
    69    30    73    1
    70    31    74    1
    71    32    75    1
    72    32    76    1
    73    33    37    1
    74    33    77    1
    75    33    78    1
    76    34    79    1
    77    34    80    1
    78    34    81    1
    79    35    38    1
    80    35    82    1
    81    35    83    1
    82    36    84    1
    83    36    85    1
    84    36    86    1
    85    37    38    1
    86    37    87    1
    87    37    88    1
    88    38    89    1
    89    39    40    1
    90    39    41    2
    91    40    92    1
    92    40    93    1
    93    41    42    1
    94    41    94    1
    95    43    44    1
    96    43    95    1
    97    44    45    1
    98    44    96    1
    99    45    47    1
   100    45    97    1
   101    46    47    1
   102    46    48    1
   103    46    98    1
   104    47    99    1
   105    48   101    1
   106    48   102    1
   107    48   103    1
   108    49    51    1
   109    49   104    1
   110    50   105    1
   111    50   106    1
   112    50   107    1
   113    51    52    1
   114    51   108    1
   115    52    54    1
   116    52   109    1
   117    53    54    1
   118    53    55    1
   119    53   110    1
   120    54   111    1
   121    55   113    1
   122    55   114    1
   123    56    57    1
   124    56   116    1
   125    57    58    1
   126    57   117    1
   127    58    60    1
   128    58   118    1
   129    59    60    1
   130    59    61    1
   131    59   119    1
   132    60   120    1
   133    61   122    1
   134    61   123    1
