@<TRIPOS>MOLECULE
IMPHY001786
 24 25 0 0 0
SMALL
GASTEIGER

@<TRIPOS>ATOM
      1 N           5.4641   -0.2500    0.0000 N.3     1  UNL1       -0.3056
      2 N           2.8660   -1.7500    0.0000 N.ar    1  UNL1       -0.2629
      3 C           4.5981    0.2500    0.0000 C.3     1  UNL1        0.0380
      4 C           4.5981    1.2500    0.0000 C.3     1  UNL1       -0.0151
      5 C           3.7320   -0.2500    0.0000 C.ar    1  UNL1       -0.0121
      6 C           6.3301    0.2500    0.0000 C.3     1  UNL1        0.0148
      7 C           5.4641    1.7500    0.0000 C.2     1  UNL1       -0.0849
      8 C           6.3301    1.2500    0.0000 C.2     1  UNL1       -0.0741
      9 C           2.8660    0.2500    0.0000 C.ar    1  UNL1       -0.0542
     10 C           3.7320   -1.2500    0.0000 C.ar    1  UNL1        0.0322
     11 C           2.0000   -0.2500    0.0000 C.ar    1  UNL1       -0.0433
     12 C           2.0000   -1.2500    0.0000 C.ar    1  UNL1        0.0276
     13 H           4.5981   -0.3700    0.0000 H       1  UNL1        0.0513
     14 H           4.3860    1.8326    0.0000 H       1  UNL1        0.0326
     15 H           3.9875    1.1423    0.0000 H       1  UNL1        0.0326
     16 H           5.4641   -0.8700    0.0000 H       1  UNL1        0.1228
     17 H           6.5422   -0.3326    0.0000 H       1  UNL1        0.0468
     18 H           6.9407    0.3577    0.0000 H       1  UNL1        0.0468
     19 H           5.4641    2.3700    0.0000 H       1  UNL1        0.0570
     20 H           6.8671    1.5600    0.0000 H       1  UNL1        0.0582
     21 H           2.8660    0.8700    0.0000 H       1  UNL1        0.0622
     22 H           4.2690   -1.5600    0.0000 H       1  UNL1        0.0833
     23 H           1.4631    0.0600    0.0000 H       1  UNL1        0.0633
     24 H           1.4631   -1.5600    0.0000 H       1  UNL1        0.0829
@<TRIPOS>BOND
     1     1     3    1
     2     1     6    1
     3     1    16    1
     4     2    10   ar
     5     2    12   ar
     6     3     4    1
     7     3     5    1
     8     3    13    1
     9     4     7    1
    10     4    14    1
    11     4    15    1
    12     5     9   ar
    13     5    10   ar
    14     6     8    1
    15     6    17    1
    16     6    18    1
    17     7     8    2
    18     7    19    1
    19     8    20    1
    20     9    11   ar
    21     9    21    1
    22    10    22    1
    23    11    12   ar
    24    11    23    1
    25    12    24    1
