@<TRIPOS>MOLECULE
IMPHY014182
 70 72 0 0 0
SMALL
GASTEIGER

@<TRIPOS>ATOM
      1 O           8.1301   -1.2635    0.0000 O.2     1  UNL1       -0.4542
      2 O          11.6602    0.7606    0.0000 O.3     1  UNL1       -0.4911
      3 O           4.6000   -1.2877    0.0000 O.3     1  UNL1       -0.4875
      4 O          11.6602   -1.2877    0.0000 O.3     1  UNL1       -0.4842
      5 O           6.3817    1.7711    0.0000 O.3     1  UNL1       -0.5055
      6 O           8.1301    1.7365    0.0000 O.2     1  UNL1       -0.2863
      7 C           8.9961    0.2365    0.0000 C.ar    1  UNL1        0.0719
      8 C           9.8901    0.7712    0.0000 C.ar    1  UNL1        0.0160
      9 C           7.2641    0.2365    0.0000 C.ar    1  UNL1        0.1064
     10 C           8.9961   -0.7635    0.0000 C.ar    1  UNL1        0.1432
     11 C           8.1301    0.7365    0.0000 C.ar    1  UNL1        0.2041
     12 C           7.2641   -0.7635    0.0000 C.ar    1  UNL1        0.1463
     13 C           5.4641    0.2573    0.0000 C.ar    1  UNL1        0.0403
     14 C           6.3701    0.7712    0.0000 C.ar    1  UNL1        0.1381
     15 C           9.8785    1.7711    0.0000 C.3     1  UNL1       -0.0049
     16 C          10.7961    0.2573    0.0000 C.ar    1  UNL1        0.1659
     17 C           5.4641   -0.7843    0.0000 C.ar    1  UNL1        0.1314
     18 C           9.8901   -1.2982    0.0000 C.ar    1  UNL1        0.0268
     19 C           6.3701   -1.2982    0.0000 C.ar    1  UNL1        0.0236
     20 C          10.7961   -0.7843    0.0000 C.ar    1  UNL1        0.1662
     21 C           4.6000    0.7606    0.0000 C.3     1  UNL1       -0.0023
     22 C          10.7387    2.2811    0.0000 C.2     1  UNL1       -0.0808
     23 C           3.7320    0.2640    0.0000 C.2     1  UNL1       -0.0807
     24 C          10.7271    3.2810    0.0000 C.2     1  UNL1       -0.0793
     25 C           2.8680    0.7673    0.0000 C.2     1  UNL1       -0.0793
     26 C           4.6038   -2.2877    0.0000 C.3     1  UNL1        0.1076
     27 C          11.6564   -2.2877    0.0000 C.3     1  UNL1        0.1077
     28 C          12.5282    0.2640    0.0000 C.3     1  UNL1        0.0790
     29 C          11.5873    3.7910    0.0000 C.3     1  UNL1       -0.0440
     30 C           9.8554    3.7710    0.0000 C.3     1  UNL1       -0.0440
     31 C           2.0000    0.2707    0.0000 C.3     1  UNL1       -0.0440
     32 C           2.8718    1.7673    0.0000 C.3     1  UNL1       -0.0440
     33 C           3.7398   -2.7910    0.0000 C.2     1  UNL1       -0.0542
     34 C          12.5205   -2.7910    0.0000 C.2     1  UNL1       -0.0542
     35 C           3.7436   -3.7910    0.0000 C.2     1  UNL1       -0.0995
     36 C          12.5166   -3.7910    0.0000 C.2     1  UNL1       -0.0995
     37 H           9.6597    2.3512    0.0000 H       1  UNL1        0.0357
     38 H           9.2692    1.6564    0.0000 H       1  UNL1        0.0357
     39 H           9.8829   -1.9181    0.0000 H       1  UNL1        0.0692
     40 H           6.3773   -1.9181    0.0000 H       1  UNL1        0.0691
     41 H           5.0003    1.2341    0.0000 H       1  UNL1        0.0358
     42 H           4.2033    1.2371    0.0000 H       1  UNL1        0.0358
     43 H          11.2792    1.9773    0.0000 H       1  UNL1        0.0575
     44 H           3.7296   -0.3560    0.0000 H       1  UNL1        0.0575
     45 H           5.8484    2.0873    0.0000 H       1  UNL1        0.2922
     46 H           4.8181   -2.8694    0.0000 H       1  UNL1        0.0742
     47 H           5.2140   -2.1776    0.0000 H       1  UNL1        0.0742
     48 H          11.0462   -2.1776    0.0000 H       1  UNL1        0.0742
     49 H          11.4421   -2.8694    0.0000 H       1  UNL1        0.0742
     50 H          12.2203   -0.2741    0.0000 H       1  UNL1        0.0660
     51 H          13.0663   -0.0439    0.0000 H       1  UNL1        0.0660
     52 H          12.8361    0.8021    0.0000 H       1  UNL1        0.0660
     53 H          11.9035    3.2577    0.0000 H       1  UNL1        0.0274
     54 H          12.1206    4.1072    0.0000 H       1  UNL1        0.0274
     55 H          11.2711    4.3243    0.0000 H       1  UNL1        0.0274
     56 H          10.1592    4.3114    0.0000 H       1  UNL1        0.0274
     57 H           9.3149    4.0747    0.0000 H       1  UNL1        0.0274
     58 H           9.5516    3.2305    0.0000 H       1  UNL1        0.0274
     59 H           1.6921    0.8088    0.0000 H       1  UNL1        0.0274
     60 H           1.4619   -0.0373    0.0000 H       1  UNL1        0.0274
     61 H           2.3079   -0.2675    0.0000 H       1  UNL1        0.0274
     62 H           3.4918    1.7649    0.0000 H       1  UNL1        0.0274
     63 H           2.8742    2.3873    0.0000 H       1  UNL1        0.0274
     64 H           2.2518    1.7697    0.0000 H       1  UNL1        0.0274
     65 H           3.2016   -2.4831    0.0000 H       1  UNL1        0.0600
     66 H          13.0586   -2.4831    0.0000 H       1  UNL1        0.0600
     67 H           3.2079   -4.1030    0.0000 H       1  UNL1        0.0533
     68 H           4.2817   -4.0989    0.0000 H       1  UNL1        0.0533
     69 H          11.9785   -4.0989    0.0000 H       1  UNL1        0.0533
     70 H          13.0524   -4.1030    0.0000 H       1  UNL1        0.0533
@<TRIPOS>BOND
     1     1    10   ar
     2     1    12   ar
     3     2    16    1
     4     2    28    1
     5     3    17    1
     6     3    26    1
     7     4    20    1
     8     4    27    1
     9     5    14    1
    10     5    45    1
    11     6    11    2
    12     7     8   ar
    13     7    10   ar
    14     7    11   ar
    15     8    15    1
    16     8    16   ar
    17     9    11   ar
    18     9    12   ar
    19     9    14   ar
    20    10    18   ar
    21    12    19   ar
    22    13    14   ar
    23    13    17   ar
    24    13    21    1
    25    15    22    1
    26    15    37    1
    27    15    38    1
    28    16    20   ar
    29    17    19   ar
    30    18    20   ar
    31    18    39    1
    32    19    40    1
    33    21    23    1
    34    21    41    1
    35    21    42    1
    36    22    24    2
    37    22    43    1
    38    23    25    2
    39    23    44    1
    40    24    29    1
    41    24    30    1
    42    25    31    1
    43    25    32    1
    44    26    33    1
    45    26    46    1
    46    26    47    1
    47    27    34    1
    48    27    48    1
    49    27    49    1
    50    28    50    1
    51    28    51    1
    52    28    52    1
    53    29    53    1
    54    29    54    1
    55    29    55    1
    56    30    56    1
    57    30    57    1
    58    30    58    1
    59    31    59    1
    60    31    60    1
    61    31    61    1
    62    32    62    1
    63    32    63    1
    64    32    64    1
    65    33    35    2
    66    33    65    1
    67    34    36    2
    68    34    66    1
    69    35    67    1
    70    35    68    1
    71    36    69    1
    72    36    70    1
