@<TRIPOS>MOLECULE
IMPHY015295
 21 21 0 0 0
SMALL
GASTEIGER

@<TRIPOS>ATOM
      1 O           4.5981    2.2500    0.0000 O.2     1  UNL1       -0.2957
      2 C           3.7320   -0.2500    0.0000 C.ar    1  UNL1       -0.0151
      3 C           3.7320    0.7500    0.0000 C.2     1  UNL1        0.0171
      4 C           2.8660   -0.7500    0.0000 C.ar    1  UNL1       -0.0539
      5 C           4.5981   -0.7500    0.0000 C.ar    1  UNL1       -0.0539
      6 C           2.8660    1.2500    0.0000 C.2     1  UNL1       -0.0763
      7 C           2.8660   -1.7500    0.0000 C.ar    1  UNL1       -0.0612
      8 C           4.5981   -1.7500    0.0000 C.ar    1  UNL1       -0.0612
      9 C           3.7320   -2.2500    0.0000 C.ar    1  UNL1       -0.0617
     10 C           2.0000    0.7500    0.0000 C.3     1  UNL1       -0.0459
     11 C           4.5981    1.2500    0.0000 C.2     1  UNL1        0.1505
     12 H           2.3291   -0.4400    0.0000 H       1  UNL1        0.0624
     13 H           5.1350   -0.4400    0.0000 H       1  UNL1        0.0624
     14 H           2.8660    1.8700    0.0000 H       1  UNL1        0.0576
     15 H           2.3291   -2.0600    0.0000 H       1  UNL1        0.0618
     16 H           5.1350   -2.0600    0.0000 H       1  UNL1        0.0618
     17 H           3.7320   -2.8700    0.0000 H       1  UNL1        0.0618
     18 H           1.6900    1.2869    0.0000 H       1  UNL1        0.0272
     19 H           1.4631    0.4400    0.0000 H       1  UNL1        0.0272
     20 H           2.3100    0.2131    0.0000 H       1  UNL1        0.0272
     21 H           5.1350    0.9400    0.0000 H       1  UNL1        0.1081
@<TRIPOS>BOND
     1     1    11    2
     2     2     3    1
     3     2     4   ar
     4     2     5   ar
     5     3     6    2
     6     3    11    1
     7     4     7   ar
     8     4    12    1
     9     5     8   ar
    10     5    13    1
    11     6    10    1
    12     6    14    1
    13     7     9   ar
    14     7    15    1
    15     8     9   ar
    16     8    16    1
    17     9    17    1
    18    10    18    1
    19    10    19    1
    20    10    20    1
    21    11    21    1
