@<TRIPOS>MOLECULE
IMPHY007719
 43 42 0 0 0
SMALL
GASTEIGER

@<TRIPOS>ATOM
      1 N          10.3312   -0.2500    0.0000 N.3     1  UNL1       -0.3159
      2 N           6.8671   -0.2500    0.0000 N.3     1  UNL1       -0.3159
      3 N          14.6613    0.2500    0.0000 N.3     1  UNL1       -0.3300
      4 N           2.5369    0.2500    0.0000 N.3     1  UNL1       -0.3300
      5 C           8.5991   -0.2500    0.0000 C.3     1  UNL1       -0.0278
      6 C           9.4651    0.2500    0.0000 C.3     1  UNL1       -0.0030
      7 C           7.7331    0.2500    0.0000 C.3     1  UNL1       -0.0030
      8 C          11.1972    0.2500    0.0000 C.3     1  UNL1       -0.0041
      9 C           6.0010    0.2500    0.0000 C.3     1  UNL1       -0.0041
     10 C          12.0632   -0.2500    0.0000 C.3     1  UNL1       -0.0393
     11 C           5.1350   -0.2500    0.0000 C.3     1  UNL1       -0.0393
     12 C          12.9292    0.2500    0.0000 C.3     1  UNL1       -0.0395
     13 C           4.2690    0.2500    0.0000 C.3     1  UNL1       -0.0395
     14 C          13.7953   -0.2500    0.0000 C.3     1  UNL1       -0.0069
     15 C           3.4030   -0.2500    0.0000 C.3     1  UNL1       -0.0069
     16 H           8.2006   -0.7249    0.0000 H       1  UNL1        0.0290
     17 H           8.9976   -0.7249    0.0000 H       1  UNL1        0.0290
     18 H           8.1316    0.7249    0.0000 H       1  UNL1        0.0424
     19 H           7.3346    0.7249    0.0000 H       1  UNL1        0.0424
     20 H           9.8637    0.7249    0.0000 H       1  UNL1        0.0424
     21 H           9.0666    0.7249    0.0000 H       1  UNL1        0.0424
     22 H          11.5957    0.7249    0.0000 H       1  UNL1        0.0424
     23 H          10.7987    0.7249    0.0000 H       1  UNL1        0.0424
     24 H           6.3996    0.7249    0.0000 H       1  UNL1        0.0424
     25 H           5.6025    0.7249    0.0000 H       1  UNL1        0.0424
     26 H           4.7365   -0.7249    0.0000 H       1  UNL1        0.0278
     27 H           5.5335   -0.7249    0.0000 H       1  UNL1        0.0278
     28 H          11.6647   -0.7249    0.0000 H       1  UNL1        0.0278
     29 H          12.4617   -0.7249    0.0000 H       1  UNL1        0.0278
     30 H           6.8671   -0.8700    0.0000 H       1  UNL1        0.1219
     31 H          10.3312   -0.8700    0.0000 H       1  UNL1        0.1219
     32 H          13.3278    0.7249    0.0000 H       1  UNL1        0.0278
     33 H          12.5307    0.7249    0.0000 H       1  UNL1        0.0278
     34 H           4.6675    0.7249    0.0000 H       1  UNL1        0.0278
     35 H           3.8705    0.7249    0.0000 H       1  UNL1        0.0278
     36 H           3.0044   -0.7249    0.0000 H       1  UNL1        0.0422
     37 H           3.8015   -0.7249    0.0000 H       1  UNL1        0.0422
     38 H          13.3967   -0.7249    0.0000 H       1  UNL1        0.0422
     39 H          14.1938   -0.7249    0.0000 H       1  UNL1        0.0422
     40 H          15.1982   -0.0600    0.0000 H       1  UNL1        0.1182
     41 H          14.6613    0.8700    0.0000 H       1  UNL1        0.1182
     42 H           2.0000   -0.0600    0.0000 H       1  UNL1        0.1182
     43 H           2.5369    0.8700    0.0000 H       1  UNL1        0.1182
@<TRIPOS>BOND
     1     1     6    1
     2     1     8    1
     3     1    31    1
     4     2     7    1
     5     2     9    1
     6     2    30    1
     7     3    14    1
     8     3    40    1
     9     3    41    1
    10     4    15    1
    11     4    42    1
    12     4    43    1
    13     5     6    1
    14     5     7    1
    15     5    16    1
    16     5    17    1
    17     6    20    1
    18     6    21    1
    19     7    18    1
    20     7    19    1
    21     8    10    1
    22     8    22    1
    23     8    23    1
    24     9    11    1
    25     9    24    1
    26     9    25    1
    27    10    12    1
    28    10    28    1
    29    10    29    1
    30    11    13    1
    31    11    26    1
    32    11    27    1
    33    12    14    1
    34    12    32    1
    35    12    33    1
    36    13    15    1
    37    13    34    1
    38    13    35    1
    39    14    38    1
    40    14    39    1
    41    15    36    1
    42    15    37    1
