@<TRIPOS>MOLECULE
IMPHY017208
 25 25 0 0 0
SMALL
GASTEIGER

@<TRIPOS>ATOM
      1 O           3.7320    1.3450    0.0000 O.3     1  UNL1       -0.3918
      2 C           2.8660   -1.1550    0.0000 C.3     1  UNL1       -0.0413
      3 C           4.5981   -1.1550    0.0000 C.3     1  UNL1       -0.0413
      4 C           3.7320   -1.6550    0.0000 C.3     1  UNL1       -0.0477
      5 C           2.8660   -0.1550    0.0000 C.3     1  UNL1       -0.0242
      6 C           4.5981   -0.1550    0.0000 C.3     1  UNL1       -0.0242
      7 C           3.7320    0.3450    0.0000 C.3     1  UNL1        0.0557
      8 C           2.0000   -1.6550    0.0000 C.3     1  UNL1       -0.0623
      9 C           5.4641   -1.6550    0.0000 C.3     1  UNL1       -0.0623
     10 H           2.8660   -1.7750    0.0000 H       1  UNL1        0.0299
     11 H           4.5981   -1.7750    0.0000 H       1  UNL1        0.0299
     12 H           3.3335   -2.1300    0.0000 H       1  UNL1        0.0270
     13 H           4.1306   -2.1300    0.0000 H       1  UNL1        0.0270
     14 H           2.6540    0.4276    0.0000 H       1  UNL1        0.0293
     15 H           2.2554   -0.2627    0.0000 H       1  UNL1        0.0293
     16 H           5.2087   -0.2627    0.0000 H       1  UNL1        0.0293
     17 H           4.8101    0.4276    0.0000 H       1  UNL1        0.0293
     18 H           4.2690    0.6550    0.0000 H       1  UNL1        0.0593
     19 H           1.6900   -1.1181    0.0000 H       1  UNL1        0.0232
     20 H           1.4631   -1.9650    0.0000 H       1  UNL1        0.0232
     21 H           2.3100   -2.1919    0.0000 H       1  UNL1        0.0232
     22 H           5.1541   -2.1919    0.0000 H       1  UNL1        0.0232
     23 H           6.0010   -1.9650    0.0000 H       1  UNL1        0.0232
     24 H           5.7741   -1.1181    0.0000 H       1  UNL1        0.0232
     25 H           4.2690    1.6550    0.0000 H       1  UNL1        0.2098
@<TRIPOS>BOND
     1     1     7    1
     2     1    25    1
     3     2     4    1
     4     2     5    1
     5     2     8    1
     6     2    10    1
     7     3     4    1
     8     3     6    1
     9     3     9    1
    10     3    11    1
    11     4    12    1
    12     4    13    1
    13     5     7    1
    14     5    14    1
    15     5    15    1
    16     6     7    1
    17     6    16    1
    18     6    17    1
    19     7    18    1
    20     8    19    1
    21     8    20    1
    22     8    21    1
    23     9    22    1
    24     9    23    1
    25     9    24    1
