@<TRIPOS>MOLECULE
IMPHY015540
 38 40 0 0 0
SMALL
GASTEIGER

@<TRIPOS>ATOM
      1 O           6.8616   -1.1017    0.0000 O.3     1  UNL1       -0.3801
      2 O           2.4141    0.3592    0.0000 O.3     1  UNL1       -0.3863
      3 O           6.7277    0.3983    0.0000 O.2     1  UNL1       -0.2890
      4 C           4.9956   -1.6017    0.0000 C.3     1  UNL1        0.0279
      5 C           5.4956   -2.4677    0.0000 C.3     1  UNL1       -0.0397
      6 C           4.4956   -2.4677    0.0000 C.3     1  UNL1       -0.0397
      7 C           5.8616   -1.1017    0.0000 C.3     1  UNL1        0.1345
      8 C           4.1296   -1.1017    0.0000 C.2     1  UNL1       -0.0570
      9 C           4.1296   -0.1017    0.0000 C.2     1  UNL1       -0.0084
     10 C           5.8616   -0.1017    0.0000 C.2     1  UNL1        0.1951
     11 C           4.9956    0.3983    0.0000 C.2     1  UNL1        0.0226
     12 C           3.3926    0.5654    0.0000 C.3     1  UNL1        0.0893
     13 C           3.7977    1.4732    0.0000 C.3     1  UNL1        0.0141
     14 C           6.3616   -1.9677    0.0000 C.3     1  UNL1       -0.0279
     15 C           3.2636   -1.6017    0.0000 C.3     1  UNL1       -0.0425
     16 C           4.7864    1.3701    0.0000 C.2     1  UNL1       -0.0647
     17 C           3.9022    2.4677    0.0000 C.3     1  UNL1       -0.0536
     18 C           2.8841    1.8799    0.0000 C.3     1  UNL1       -0.0536
     19 H           5.6033   -3.0783    0.0000 H       1  UNL1        0.0275
     20 H           6.0782   -2.2557    0.0000 H       1  UNL1        0.0275
     21 H           3.9130   -2.2557    0.0000 H       1  UNL1        0.0275
     22 H           4.3880   -3.0783    0.0000 H       1  UNL1        0.0275
     23 H           3.2308   -0.0331    0.0000 H       1  UNL1        0.0652
     24 H           5.8247   -2.2777    0.0000 H       1  UNL1        0.0262
     25 H           6.6716   -2.5046    0.0000 H       1  UNL1        0.0262
     26 H           6.8986   -1.6577    0.0000 H       1  UNL1        0.0262
     27 H           5.2005    1.8316    0.0000 H       1  UNL1        0.0585
     28 H           2.9536   -1.0648    0.0000 H       1  UNL1        0.0275
     29 H           2.7266   -1.9117    0.0000 H       1  UNL1        0.0275
     30 H           3.5736   -2.1386    0.0000 H       1  UNL1        0.0275
     31 H           7.1716   -1.6386    0.0000 H       1  UNL1        0.2108
     32 H           4.5188    2.4029    0.0000 H       1  UNL1        0.0239
     33 H           3.9670    3.0843    0.0000 H       1  UNL1        0.0239
     34 H           3.2856    2.5325    0.0000 H       1  UNL1        0.0239
     35 H           3.1363    2.4463    0.0000 H       1  UNL1        0.0239
     36 H           2.3177    2.1321    0.0000 H       1  UNL1        0.0239
     37 H           2.6320    1.3135    0.0000 H       1  UNL1        0.0239
     38 H           2.0000    0.8206    0.0000 H       1  UNL1        0.2103
@<TRIPOS>BOND
     1     1     7    1
     2     1    31    1
     3     2    12    1
     4     2    38    1
     5     3    10    2
     6     4     5    1
     7     4     6    1
     8     4     7    1
     9     4     8    1
    10     5     6    1
    11     5    19    1
    12     5    20    1
    13     6    21    1
    14     6    22    1
    15     7    10    1
    16     7    14    1
    17     8     9    2
    18     8    15    1
    19     9    11    1
    20     9    12    1
    21    10    11    1
    22    11    16    2
    23    12    13    1
    24    12    23    1
    25    13    16    1
    26    13    17    1
    27    13    18    1
    28    14    24    1
    29    14    25    1
    30    14    26    1
    31    15    28    1
    32    15    29    1
    33    15    30    1
    34    16    27    1
    35    17    32    1
    36    17    33    1
    37    17    34    1
    38    18    35    1
    39    18    36    1
    40    18    37    1
