@<TRIPOS>MOLECULE
IMPHY017632
 43 42 0 0 0
SMALL
GASTEIGER

@<TRIPOS>ATOM
      1 O           5.4641    0.7500    0.0000 O.3     1  UNL1       -0.4640
      2 O           4.5981    2.2500    0.0000 O.2     1  UNL1       -0.2508
      3 C           7.1962    0.7500    0.0000 C.3     1  UNL1        0.0141
      4 C           7.1962   -0.2500    0.0000 C.3     1  UNL1       -0.0397
      5 C           6.3301    1.2500    0.0000 C.3     1  UNL1        0.0989
      6 C           6.3301   -0.7500    0.0000 C.3     1  UNL1       -0.0316
      7 C           8.0622    1.2500    0.0000 C.2     1  UNL1       -0.0734
      8 C           2.8660    1.2500    0.0000 C.3     1  UNL1       -0.0367
      9 C           3.7320    0.7500    0.0000 C.3     1  UNL1        0.0473
     10 C           6.3301   -1.7500    0.0000 C.2     1  UNL1       -0.0797
     11 C           8.9282    0.7500    0.0000 C.3     1  UNL1       -0.0437
     12 C           4.5981    1.2500    0.0000 C.2     1  UNL1        0.3073
     13 C           2.0000    0.7500    0.0000 C.3     1  UNL1       -0.0622
     14 C           2.8660    2.2500    0.0000 C.3     1  UNL1       -0.0622
     15 C           8.0622    2.2500    0.0000 C.2     1  UNL1       -0.0993
     16 C           5.4641   -2.2500    0.0000 C.3     1  UNL1       -0.0440
     17 C           7.1962   -2.2500    0.0000 C.2     1  UNL1       -0.0997
     18 H           6.6592    0.4400    0.0000 H       1  UNL1        0.0379
     19 H           7.4082   -0.8326    0.0000 H       1  UNL1        0.0275
     20 H           7.8067   -0.1423    0.0000 H       1  UNL1        0.0275
     21 H           6.7287    1.7250    0.0000 H       1  UNL1        0.0703
     22 H           5.9316    1.7250    0.0000 H       1  UNL1        0.0703
     23 H           6.1181   -0.1674    0.0000 H       1  UNL1        0.0310
     24 H           5.7196   -0.8577    0.0000 H       1  UNL1        0.0310
     25 H           2.8660    0.6300    0.0000 H       1  UNL1        0.0301
     26 H           3.3335    0.2751    0.0000 H       1  UNL1        0.0380
     27 H           4.1306    0.2751    0.0000 H       1  UNL1        0.0380
     28 H           8.6182    0.2131    0.0000 H       1  UNL1        0.0274
     29 H           9.4651    0.4400    0.0000 H       1  UNL1        0.0274
     30 H           9.2382    1.2869    0.0000 H       1  UNL1        0.0274
     31 H           1.6900    1.2869    0.0000 H       1  UNL1        0.0232
     32 H           1.4631    0.4400    0.0000 H       1  UNL1        0.0232
     33 H           2.3100    0.2131    0.0000 H       1  UNL1        0.0232
     34 H           3.4860    2.2500    0.0000 H       1  UNL1        0.0232
     35 H           2.8660    2.8700    0.0000 H       1  UNL1        0.0232
     36 H           2.2460    2.2500    0.0000 H       1  UNL1        0.0232
     37 H           8.5991    2.5600    0.0000 H       1  UNL1        0.0534
     38 H           7.5252    2.5600    0.0000 H       1  UNL1        0.0534
     39 H           5.1541   -1.7131    0.0000 H       1  UNL1        0.0274
     40 H           4.9272   -2.5600    0.0000 H       1  UNL1        0.0274
     41 H           5.7741   -2.7869    0.0000 H       1  UNL1        0.0274
     42 H           7.1962   -2.8700    0.0000 H       1  UNL1        0.0534
     43 H           7.7331   -1.9400    0.0000 H       1  UNL1        0.0534
@<TRIPOS>BOND
     1     1     5    1
     2     1    12    1
     3     2    12    2
     4     3     4    1
     5     3     5    1
     6     3     7    1
     7     3    18    1
     8     4     6    1
     9     4    19    1
    10     4    20    1
    11     5    21    1
    12     5    22    1
    13     6    10    1
    14     6    23    1
    15     6    24    1
    16     7    11    1
    17     7    15    2
    18     8     9    1
    19     8    13    1
    20     8    14    1
    21     8    25    1
    22     9    12    1
    23     9    26    1
    24     9    27    1
    25    10    16    1
    26    10    17    2
    27    11    28    1
    28    11    29    1
    29    11    30    1
    30    13    31    1
    31    13    32    1
    32    13    33    1
    33    14    34    1
    34    14    35    1
    35    14    36    1
    36    15    37    1
    37    15    38    1
    38    16    39    1
    39    16    40    1
    40    16    41    1
    41    17    42    1
    42    17    43    1
