@<TRIPOS>MOLECULE
IMPHY006242
 57 59 0 0 0
SMALL
GASTEIGER

@<TRIPOS>ATOM
      1 O          10.6188    1.7612    0.0000 O.2     1  UNL1       -0.2971
      2 O           7.9244   -1.6884    0.0000 O.2     1  UNL1       -0.2758
      3 O           7.6138   -2.6390    0.0000 O.3     1  UNL1       -0.4793
      4 OXT         6.3246   -3.7957    0.0000 O.2     1  UNL1       -0.2489
      5 N           6.2781   -1.1504    0.0000 N.am    1  UNL1       -0.3021
      6 NE1         4.6783   -4.8671    0.0000 N.ar    1  UNL1       -0.3604
      7 C           8.5458    0.2126    0.0000 C.3     1  UNL1       -0.0226
      8 C           8.9541    1.1254    0.0000 C.3     1  UNL1        0.0242
      9 C           9.2878   -0.4578    0.0000 C.3     1  UNL1       -0.0424
     10 C          10.1547    0.0407    0.0000 C.3     1  UNL1        0.0064
     11 C           9.9484    1.0192    0.0000 C.2     1  UNL1        0.1370
     12 C           7.5673    0.0064    0.0000 C.3     1  UNL1        0.0274
     13 C           8.4556    1.9923    0.0000 C.3     1  UNL1       -0.0250
     14 C           7.2566   -0.9442    0.0000 C.2     0  ACE0        0.2139
     15 C           8.9571    2.8575    0.0000 C.2     1  UNL1       -0.0873
     16 CA          5.9674   -2.1009    0.0000 C.3     1  UNL1        0.1243
     17 CB          4.9889   -2.3071    0.0000 C.3     1  UNL1        0.0032
     18 C           8.4586    3.7244    0.0000 C.2     1  UNL1       -0.0882
     19 CG          4.6783   -3.2576    0.0000 C.ar    1  UNL1       -0.0201
     20 C           8.9601    4.5895    0.0000 C.3     1  UNL1       -0.0376
     21 C           6.6353   -2.8452    0.0000 C.2     1  UNL1        0.3256
     22 CD2         3.7320   -3.5624    0.0000 C.ar    1  UNL1        0.0029
     23 CD1         5.2619   -4.0624    0.0000 C.ar    1  UNL1        0.0060
     24 CE2         3.7320   -4.5624    0.0000 C.ar    1  UNL1        0.0467
     25 CE3         2.8660   -3.0624    0.0000 C.ar    1  UNL1       -0.0523
     26 C           8.4616    5.4564    0.0000 C.3     1  UNL1       -0.0618
     27 CZ2         2.8660   -5.0624    0.0000 C.ar    1  UNL1       -0.0378
     28 CZ3         2.0000   -3.5624    0.0000 C.ar    1  UNL1       -0.0611
     29 CH2         2.0000   -4.5624    0.0000 C.ar    1  UNL1       -0.0598
     30 H           8.3843   -0.3860    0.0000 H       1  UNL1        0.0312
     31 H           8.3349    1.0940    0.0000 H       1  UNL1        0.0383
     32 H           8.8263   -0.8719    0.0000 H       1  UNL1        0.0272
     33 H           9.6513   -0.9600    0.0000 H       1  UNL1        0.0272
     34 H          10.4058   -0.5262    0.0000 H       1  UNL1        0.0342
     35 H          10.7446    0.2312    0.0000 H       1  UNL1        0.0342
     36 H           7.5467    0.6260    0.0000 H       1  UNL1        0.0361
     37 H           6.9534    0.0937    0.0000 H       1  UNL1        0.0361
     38 H           7.9813    2.3917    0.0000 H       1  UNL1        0.0314
     39 H           7.9800    1.5946    0.0000 H       1  UNL1        0.0314
     40 H           9.5771    2.8564    0.0000 H       1  UNL1        0.0569
     41 H           5.8640   -0.6889    0.0000 H       1  UNL1        0.1495
     42 HA          5.5534   -1.6394    0.0000 H       1  UNL1        0.0618
     43 HB1         4.9684   -1.6874    0.0000 H       1  UNL1        0.0337
     44 HB2         4.3751   -2.2198    0.0000 H       1  UNL1        0.0337
     45 H           7.8386    3.7254    0.0000 H       1  UNL1        0.0569
     46 H           9.4343    4.1902    0.0000 H       1  UNL1        0.0305
     47 H           9.4357    4.9872    0.0000 H       1  UNL1        0.0305
     48 HD1         5.8819   -4.0624    0.0000 H       1  UNL1        0.0810
     49 HE1         4.8709   -5.4564    0.0000 H       1  UNL1        0.1653
     50 HE3         2.8660   -2.4424    0.0000 H       1  UNL1        0.0624
     51 H           8.9991    5.7655    0.0000 H       1  UNL1        0.0233
     52 H           8.1525    5.9939    0.0000 H       1  UNL1        0.0233
     53 H           7.9241    5.1473    0.0000 H       1  UNL1        0.0233
     54 HZ2         2.8660   -5.6824    0.0000 H       1  UNL1        0.0638
     55 HZ3         1.4631   -3.2524    0.0000 H       1  UNL1        0.0618
     56 HH2         1.4631   -4.8724    0.0000 H       1  UNL1        0.0618
     57 H           8.0279   -3.1004    0.0000 H       1  UNL1        0.2951
@<TRIPOS>BOND
     1     1    11    2
     2     2    14    2
     3     3    21    1
     4     3    57    1
     5     4    21    2
     6     5    14   am
     7    16     5    1
     8     5    41    1
     9     6    23   ar
    10     6    24   ar
    11     6    49    1
    12     7     8    1
    13     7     9    1
    14     7    12    1
    15     7    30    1
    16     8    11    1
    17     8    13    1
    18     8    31    1
    19     9    10    1
    20     9    32    1
    21     9    33    1
    22    10    11    1
    23    10    34    1
    24    10    35    1
    25    12    14    1
    26    12    36    1
    27    12    37    1
    28    13    15    1
    29    13    38    1
    30    13    39    1
    31    15    18    2
    32    15    40    1
    33    16    17    1
    34    16    21    1
    35    16    42    1
    36    17    19    1
    37    17    43    1
    38    17    44    1
    39    18    20    1
    40    18    45    1
    41    19    22   ar
    42    19    23   ar
    43    20    26    1
    44    20    46    1
    45    20    47    1
    46    22    24   ar
    47    22    25   ar
    48    23    48    1
    49    24    27   ar
    50    25    28   ar
    51    25    50    1
    52    26    51    1
    53    26    52    1
    54    26    53    1
    55    27    29   ar
    56    27    54    1
    57    28    29   ar
    58    28    55    1
    59    29    56    1
