@<TRIPOS>MOLECULE
IMPHY003167
 15 15 0 0 0
SMALL
GASTEIGER

@<TRIPOS>ATOM
      1 O           2.0000    0.5000    0.0000 O.3     1  UNL1       -0.4936
      2 N           3.7320   -1.5000    0.0000 N.ar    1  UNL1       -0.2596
      3 C           2.8660    0.0000    0.0000 C.ar    1  UNL1        0.1381
      4 C           3.7320    0.5000    0.0000 C.ar    1  UNL1       -0.0170
      5 C           2.8660   -1.0000    0.0000 C.ar    1  UNL1        0.0692
      6 C           4.5981    0.0000    0.0000 C.ar    1  UNL1       -0.0401
      7 C           4.5981   -1.0000    0.0000 C.ar    1  UNL1        0.0278
      8 C           2.0000    1.5000    0.0000 C.3     1  UNL1        0.0789
      9 H           3.7320    1.1200    0.0000 H       1  UNL1        0.0655
     10 H           2.3291   -1.3100    0.0000 H       1  UNL1        0.0867
     11 H           5.1350    0.3100    0.0000 H       1  UNL1        0.0634
     12 H           5.1350   -1.3100    0.0000 H       1  UNL1        0.0829
     13 H           2.6200    1.5000    0.0000 H       1  UNL1        0.0660
     14 H           2.0000    2.1200    0.0000 H       1  UNL1        0.0660
     15 H           1.3800    1.5000    0.0000 H       1  UNL1        0.0660
@<TRIPOS>BOND
     1     1     3    1
     2     1     8    1
     3     2     5   ar
     4     2     7   ar
     5     3     4   ar
     6     3     5   ar
     7     4     6   ar
     8     4     9    1
     9     5    10    1
    10     6     7   ar
    11     6    11    1
    12     7    12    1
    13     8    13    1
    14     8    14    1
    15     8    15    1
