@<TRIPOS>MOLECULE
IMPHY006011
 17 17 0 0 0
SMALL
GASTEIGER

@<TRIPOS>ATOM
      1 N           3.7320    1.4400    0.0000 N.3     1  UNL1       -0.3261
      2 C           2.8660   -0.0600    0.0000 C.ar    1  UNL1       -0.0338
      3 C           2.8660    0.9400    0.0000 C.3     1  UNL1        0.0185
      4 C           2.0000   -0.5600    0.0000 C.ar    1  UNL1       -0.0574
      5 C           3.7320   -0.5600    0.0000 C.ar    1  UNL1       -0.0574
      6 C           2.0000   -1.5600    0.0000 C.ar    1  UNL1       -0.0615
      7 C           3.7320   -1.5600    0.0000 C.ar    1  UNL1       -0.0615
      8 C           2.8660   -2.0600    0.0000 C.ar    1  UNL1       -0.0617
      9 H           2.6540    1.5226    0.0000 H       1  UNL1        0.0471
     10 H           2.2554    0.8323    0.0000 H       1  UNL1        0.0471
     11 H           1.4631   -0.2500    0.0000 H       1  UNL1        0.0621
     12 H           4.2690   -0.2500    0.0000 H       1  UNL1        0.0621
     13 H           1.4631   -1.8700    0.0000 H       1  UNL1        0.0618
     14 H           4.2690   -1.8700    0.0000 H       1  UNL1        0.0618
     15 H           2.8660   -2.6800    0.0000 H       1  UNL1        0.0618
     16 H           3.7320    2.0600    0.0000 H       1  UNL1        0.1185
     17 H           4.2690    1.1300    0.0000 H       1  UNL1        0.1185
@<TRIPOS>BOND
     1     1     3    1
     2     1    16    1
     3     1    17    1
     4     2     3    1
     5     2     4   ar
     6     2     5   ar
     7     3     9    1
     8     3    10    1
     9     4     6   ar
    10     4    11    1
    11     5     7   ar
    12     5    12    1
    13     6     8   ar
    14     6    13    1
    15     7     8   ar
    16     7    14    1
    17     8    15    1
