@<TRIPOS>MOLECULE
IMPHY003823
 46 50 0 0 0
SMALL
GASTEIGER

@<TRIPOS>ATOM
      1 O           9.7248   -0.3112    0.0000 O.2     1  UNL1       -0.4957
      2 O           7.5596   -2.5737    0.0000 O.3     1  UNL1       -0.4646
      3 O           6.2860   -1.3999    0.0000 O.2     1  UNL1       -0.2452
      4 N           6.9654    2.1163    0.0000 N.ar    1  UNL1       -0.3483
      5 N           4.5124    0.9988    0.0000 N.ar    1  UNL1       -0.2449
      6 C           8.3170    0.9273    0.0000 C.3     1  UNL1        0.0211
      7 C           7.6200    0.1532    0.0000 C.3     1  UNL1        0.0070
      8 C           7.9875    1.9154    0.0000 C.3     1  UNL1        0.0298
      9 C           6.6028    0.3776    0.0000 C.3     1  UNL1       -0.0027
     10 C           9.3816    0.7181    0.0000 C.3     1  UNL1        0.1016
     11 C           6.2962    1.3731    0.0000 C.ar    1  UNL1        0.0454
     12 C           7.9393   -0.8837    0.0000 C.2     1  UNL1        0.0745
     13 C           5.3181    1.5810    0.0000 C.ar    1  UNL1        0.0916
     14 C          10.0421    1.4689    0.0000 C.3     1  UNL1       -0.0275
     15 C           8.9988   -1.1175    0.0000 C.2     1  UNL1        0.0951
     16 C           6.6564    3.0673    0.0000 C.ar    1  UNL1        0.0055
     17 C           5.0091    2.5321    0.0000 C.ar    1  UNL1        0.0126
     18 C           5.6782    3.2752    0.0000 C.ar    1  UNL1       -0.0357
     19 C           7.2616   -1.6191    0.0000 C.2     1  UNL1        0.3381
     20 C           4.0150    2.5295    0.0000 C.ar    1  UNL1        0.0096
     21 C           3.7086    1.5838    0.0000 C.ar    1  UNL1        0.0724
     22 C           3.3334    3.3090    0.0000 C.ar    1  UNL1       -0.0519
     23 C           2.6994    1.3521    0.0000 C.ar    1  UNL1       -0.0357
     24 C           2.3191    3.1007    0.0000 C.ar    1  UNL1       -0.0611
     25 C           2.0000    2.1156    0.0000 C.ar    1  UNL1       -0.0597
     26 C           6.8820   -3.3090    0.0000 C.3     1  UNL1        0.0820
     27 H           8.8784    1.5655    0.0000 H       1  UNL1        0.0360
     28 H           7.0440   -0.4718    0.0000 H       1  UNL1        0.0360
     29 H           8.6005    2.0080    0.0000 H       1  UNL1        0.0496
     30 H           8.0011    2.5353    0.0000 H       1  UNL1        0.0496
     31 H           5.9878    0.2992    0.0000 H       1  UNL1        0.0334
     32 H           6.5748   -0.2417    0.0000 H       1  UNL1        0.0334
     33 H           9.9893    0.5950    0.0000 H       1  UNL1        0.0733
     34 H          10.5076    1.0594    0.0000 H       1  UNL1        0.0265
     35 H          10.4516    1.9344    0.0000 H       1  UNL1        0.0265
     36 H           9.5766    1.8784    0.0000 H       1  UNL1        0.0265
     37 H           9.1881   -1.7079    0.0000 H       1  UNL1        0.1028
     38 H           7.0712    3.5281    0.0000 H       1  UNL1        0.0809
     39 H           5.4866    3.8649    0.0000 H       1  UNL1        0.0639
     40 H           3.5313    3.8966    0.0000 H       1  UNL1        0.0624
     41 H           2.5152    0.7601    0.0000 H       1  UNL1        0.0639
     42 H           1.9056    3.5626    0.0000 H       1  UNL1        0.0618
     43 H           1.3942    1.9838    0.0000 H       1  UNL1        0.0618
     44 H           6.4260   -2.8888    0.0000 H       1  UNL1        0.0661
     45 H           6.4618   -3.7649    0.0000 H       1  UNL1        0.0661
     46 H           7.3379   -3.7292    0.0000 H       1  UNL1        0.0661
@<TRIPOS>BOND
     1     1    10    1
     2     1    15    1
     3     2    19    1
     4     2    26    1
     5     3    19    2
     6     4     8    1
     7     4    11   ar
     8     4    16   ar
     9     5    13   ar
    10     5    21   ar
    11     6     7    1
    12     6     8    1
    13     6    10    1
    14     6    27    1
    15     7     9    1
    16     7    12    1
    17     7    28    1
    18     8    29    1
    19     8    30    1
    20     9    11    1
    21     9    31    1
    22     9    32    1
    23    10    14    1
    24    10    33    1
    25    11    13   ar
    26    12    15    2
    27    12    19    1
    28    13    17    1
    29    14    34    1
    30    14    35    1
    31    14    36    1
    32    15    37    1
    33    16    18   ar
    34    16    38    1
    35    17    18   ar
    36    17    20   ar
    37    18    39    1
    38    20    21   ar
    39    20    22   ar
    40    21    23   ar
    41    22    24   ar
    42    22    40    1
    43    23    25   ar
    44    23    41    1
    45    24    25   ar
    46    24    42    1
    47    25    43    1
    48    26    44    1
    49    26    45    1
    50    26    46    1
