@<TRIPOS>MOLECULE
IMPHY008837
 34 37 0 0 0
SMALL
GASTEIGER

@<TRIPOS>ATOM
      1 O           4.2690    1.0000    0.0000 O.3     1  UNL1       -0.3067
      2 O           5.1350   -0.5000    0.0000 O.3     1  UNL1       -0.4471
      3 O           6.8671    2.5000    0.0000 O.3     1  UNL1       -0.2173
      4 O           6.8671    0.5000    0.0000 O.3     1  UNL1       -0.2135
      5 O           5.1350    3.5000    0.0000 O.3     1  UNL1       -0.2171
      6 O           2.5369    2.0000    0.0000 O.co2   1  UNL1       -0.2429
      7 O           3.4030    3.5000    0.0000 O.co2   1  UNL1       -0.2429
      8 O           8.6270   -0.4653    0.0000 O.2     1  UNL1       -0.4531
      9 O           5.1350   -2.5000    0.0000 O.3     1  UNL1       -0.4653
     10 O           6.8671   -3.5000    0.0000 O.3     1  UNL1       -0.2830
     11 O           8.6155   -3.5346    0.0000 O.2     1  UNL1       -0.2862
     12 O          12.9895    1.0342    0.0000 O.3     1  UNL1       -0.2866
     13 C           6.0010    2.0000    0.0000 C.3     1  UNL1        0.2216
     14 C           6.0010    1.0000    0.0000 C.3     1  UNL1        0.2542
     15 C           5.1350    2.5000    0.0000 C.3     1  UNL1        0.2230
     16 C           5.1350    0.5000    0.0000 C.3     1  UNL1        0.3223
     17 C           4.2690    2.0000    0.0000 C.3     1  UNL1        0.2538
     18 C           3.4030    2.5000    0.0000 C.2     1  UNL1        0.3941
     19 C           6.0010   -1.0000    0.0000 C.ar    1  UNL1        0.1813
     20 C           6.0010   -2.0000    0.0000 C.ar    1  UNL1        0.2115
     21 C           6.8671   -0.5000    0.0000 C.ar    1  UNL1        0.0779
     22 C           7.7331   -1.0000    0.0000 C.ar    1  UNL1        0.1547
     23 C           7.7331   -2.0000    0.0000 C.ar    1  UNL1        0.1156
     24 C           6.8671   -2.5000    0.0000 C.ar    1  UNL1        0.2383
     25 C           8.6270   -2.5347    0.0000 C.ar    1  UNL1        0.2049
     26 C           9.5331   -0.9792    0.0000 C.ar    1  UNL1        0.1484
     27 C           9.5331   -2.0208    0.0000 C.ar    1  UNL1        0.0797
     28 C          10.3972   -0.4759    0.0000 C.ar    1  UNL1        0.0349
     29 C           4.2690   -2.0000    0.0000 C.3     1  UNL1        0.2528
     30 C          10.3933    0.5241    0.0000 C.ar    1  UNL1        0.0063
     31 C          11.2651   -0.9725    0.0000 C.ar    1  UNL1        0.0063
     32 C          11.2574    1.0275    0.0000 C.ar    1  UNL1        0.0421
     33 C          12.1292   -0.4692    0.0000 C.ar    1  UNL1        0.0421
     34 C          12.1254    0.5308    0.0000 C.ar    1  UNL1        0.1957
@<TRIPOS>BOND
     1     1    16    1
     2     1    17    1
     3     2    19    1
     4     6    18   ar
     5     7    18   ar
     6     8    22   ar
     7     8    26   ar
     8     9    20    1
     9     9    29    1
    10    10    24    1
    11    11    25    2
    12    12    34    1
    13    13     3    1
    14    13    14    1
    15    13    15    1
    16    14     4    1
    17    14    16    1
    18    15     5    1
    19    15    17    1
    20    16     2    1
    21    17    18    1
    22    19    20   ar
    23    19    21   ar
    24    20    24   ar
    25    21    22   ar
    26    22    23   ar
    27    23    24   ar
    28    23    25   ar
    29    25    27   ar
    30    26    27   ar
    31    26    28    1
    32    28    30   ar
    33    28    31   ar
    34    30    32   ar
    35    31    33   ar
    36    32    34   ar
    37    33    34   ar
