@<TRIPOS>MOLECULE
IMPHY009628
 21 21 0 0 0
SMALL
GASTEIGER

@<TRIPOS>ATOM
      1 O           2.8660   -0.1550    0.0000 O.3     1  UNL1       -0.3783
      2 N           5.4641    1.3450    0.0000 N.pl3   1  UNL1       -0.3577
      3 C           4.5981   -0.1550    0.0000 C.ar    1  UNL1       -0.0013
      4 C           5.4641    0.3450    0.0000 C.ar    1  UNL1        0.0300
      5 C           3.7320    0.3450    0.0000 C.3     1  UNL1        0.0740
      6 C           4.5981   -1.1550    0.0000 C.ar    1  UNL1       -0.0546
      7 C           6.3301   -0.1550    0.0000 C.ar    1  UNL1       -0.0407
      8 C           5.4641   -1.6550    0.0000 C.ar    1  UNL1       -0.0613
      9 C           6.3301   -1.1550    0.0000 C.ar    1  UNL1       -0.0600
     10 C           2.0000    0.3450    0.0000 C.3     1  UNL1        0.0369
     11 H           4.1306    0.8199    0.0000 H       1  UNL1        0.0610
     12 H           3.3335    0.8199    0.0000 H       1  UNL1        0.0610
     13 H           4.0611   -1.4650    0.0000 H       1  UNL1        0.0622
     14 H           6.8671    0.1550    0.0000 H       1  UNL1        0.0636
     15 H           5.4641   -2.2750    0.0000 H       1  UNL1        0.0618
     16 H           6.8671   -1.4650    0.0000 H       1  UNL1        0.0618
     17 H           6.0010    1.6550    0.0000 H       1  UNL1        0.1423
     18 H           4.9272    1.6550    0.0000 H       1  UNL1        0.1423
     19 H           2.3100    0.8819    0.0000 H       1  UNL1        0.0524
     20 H           1.4631    0.6550    0.0000 H       1  UNL1        0.0524
     21 H           1.6900   -0.1919    0.0000 H       1  UNL1        0.0524
@<TRIPOS>BOND
     1     1     5    1
     2     1    10    1
     3     2     4    1
     4     2    17    1
     5     2    18    1
     6     3     4   ar
     7     3     5    1
     8     3     6   ar
     9     4     7   ar
    10     5    11    1
    11     5    12    1
    12     6     8   ar
    13     6    13    1
    14     7     9   ar
    15     7    14    1
    16     8     9   ar
    17     8    15    1
    18     9    16    1
    19    10    19    1
    20    10    20    1
    21    10    21    1
