@<TRIPOS>MOLECULE
IMPHY001335
 78 81 0 0 0
SMALL
GASTEIGER

@<TRIPOS>ATOM
      1 O           6.8671   -2.5499    0.0000 O.3     1  UNL1       -0.3449
      2 O           6.9002    5.3206    0.0000 O.3     1  UNL1       -0.3887
      3 O           5.1350   -2.5499    0.0000 O.3     1  UNL1       -0.3405
      4 O           4.9003    5.3360    0.0000 O.3     1  UNL1       -0.3924
      5 O           6.8671   -4.5499    0.0000 O.3     1  UNL1       -0.3841
      6 O           5.1350   -5.5499    0.0000 O.3     1  UNL1       -0.3864
      7 O           3.4030   -4.5499    0.0000 O.3     1  UNL1       -0.3865
      8 O           2.5369   -3.0499    0.0000 O.3     1  UNL1       -0.3924
      9 C           6.8910    0.5193    0.0000 C.3     1  UNL1       -0.0221
     10 C           7.7551    0.0160    0.0000 C.3     1  UNL1       -0.0273
     11 C           7.7671   -1.0256    0.0000 C.3     1  UNL1       -0.0052
     12 C           6.8948    1.5193    0.0000 C.3     1  UNL1       -0.0142
     13 C           5.9790    0.0160    0.0000 C.3     1  UNL1       -0.0444
     14 C           8.6230    0.5126    0.0000 C.3     1  UNL1       -0.0454
     15 C           6.8671   -1.5499    0.0000 C.3     1  UNL1        0.0672
     16 C           7.7628    2.0159    0.0000 C.2     1  UNL1       -0.0692
     17 C           5.9670   -1.0256    0.0000 C.3     1  UNL1       -0.0255
     18 C           5.9868    2.0296    0.0000 C.3     1  UNL1       -0.0451
     19 C           8.6269    1.5126    0.0000 C.3     1  UNL1       -0.0312
     20 C           6.0269    1.0226    0.0000 C.3     1  UNL1       -0.0587
     21 C           6.8869    3.5886    0.0000 C.3     1  UNL1        0.0143
     22 C           5.9828    3.0712    0.0000 C.3     1  UNL1       -0.0412
     23 C           8.7671   -1.0179    0.0000 C.3     1  UNL1       -0.0572
     24 C           8.2738   -1.8878    0.0000 C.3     1  UNL1       -0.0572
     25 C           7.7829    3.0574    0.0000 C.2     1  UNL1       -0.0760
     26 C           6.3936    4.4584    0.0000 C.3     1  UNL1        0.0870
     27 C           7.3935    4.4507    0.0000 C.3     1  UNL1       -0.0536
     28 C           6.0010   -3.0499    0.0000 C.3     1  UNL1        0.1882
     29 C           5.3936    4.4662    0.0000 C.3     1  UNL1        0.0709
     30 C           6.0010   -4.0499    0.0000 C.3     1  UNL1        0.1341
     31 C           5.1350   -4.5499    0.0000 C.3     1  UNL1        0.1141
     32 C           4.2690   -3.0499    0.0000 C.3     1  UNL1        0.1130
     33 C           4.2690   -4.0499    0.0000 C.3     1  UNL1        0.1119
     34 C           3.4030   -2.5499    0.0000 C.3     1  UNL1        0.0730
     35 H           8.4928   -0.4062    0.0000 H       1  UNL1        0.0312
     36 H           7.6293    1.0914    0.0000 H       1  UNL1        0.0351
     37 H           5.7768    0.6020    0.0000 H       1  UNL1        0.0272
     38 H           5.3670   -0.0831    0.0000 H       1  UNL1        0.0272
     39 H           8.8328   -0.0708    0.0000 H       1  UNL1        0.0271
     40 H           9.2340    0.6179    0.0000 H       1  UNL1        0.0271
     41 H           7.4046   -1.8589    0.0000 H       1  UNL1        0.0602
     42 H           5.3574   -0.9125    0.0000 H       1  UNL1        0.0290
     43 H           5.7512   -1.6068    0.0000 H       1  UNL1        0.0290
     44 H           5.3755    2.1334    0.0000 H       1  UNL1        0.0271
     45 H           5.7800    1.4451    0.0000 H       1  UNL1        0.0271
     46 H           9.2370    1.4026    0.0000 H       1  UNL1        0.0310
     47 H           8.8412    2.0944    0.0000 H       1  UNL1        0.0310
     48 H           6.3390    1.5584    0.0000 H       1  UNL1        0.0235
     49 H           5.4912    1.3347    0.0000 H       1  UNL1        0.0235
     50 H           5.7148    0.4869    0.0000 H       1  UNL1        0.0235
     51 H           5.7715    3.6541    0.0000 H       1  UNL1        0.0274
     52 H           5.3724    2.9628    0.0000 H       1  UNL1        0.0274
     53 H           7.7393   -2.2019    0.0000 H       1  UNL1        0.0236
     54 H           8.7719   -1.6379    0.0000 H       1  UNL1        0.0236
     55 H           9.3871   -1.0131    0.0000 H       1  UNL1        0.0236
     56 H           8.7623   -0.3979    0.0000 H       1  UNL1        0.0236
     57 H           8.5879   -2.4223    0.0000 H       1  UNL1        0.0236
     58 H           8.8083   -1.5736    0.0000 H       1  UNL1        0.0236
     59 H           8.3245    3.3591    0.0000 H       1  UNL1        0.0578
     60 H           6.0877    4.9978    0.0000 H       1  UNL1        0.0625
     61 H           7.9281    4.1366    0.0000 H       1  UNL1        0.0239
     62 H           7.7077    4.9853    0.0000 H       1  UNL1        0.0239
     63 H           6.8590    4.7649    0.0000 H       1  UNL1        0.0239
     64 H           6.0010   -2.4299    0.0000 H       1  UNL1        0.0937
     65 H           4.8094    4.2586    0.0000 H       1  UNL1        0.0583
     66 H           5.4965    3.8548    0.0000 H       1  UNL1        0.0583
     67 H           6.0010   -4.6699    0.0000 H       1  UNL1        0.0671
     68 H           6.5944    5.8599    0.0000 H       1  UNL1        0.2099
     69 H           4.5981   -4.8599    0.0000 H       1  UNL1        0.0648
     70 H           4.2690   -2.4299    0.0000 H       1  UNL1        0.0647
     71 H           3.7320   -3.7399    0.0000 H       1  UNL1        0.0647
     72 H           4.2803    5.3408    0.0000 H       1  UNL1        0.2095
     73 H           6.8671   -5.1699    0.0000 H       1  UNL1        0.2101
     74 H           3.8015   -2.0750    0.0000 H       1  UNL1        0.0584
     75 H           3.0044   -2.0750    0.0000 H       1  UNL1        0.0584
     76 H           4.5981   -5.8599    0.0000 H       1  UNL1        0.2100
     77 H           3.4030   -5.1699    0.0000 H       1  UNL1        0.2100
     78 H           2.0000   -2.7399    0.0000 H       1  UNL1        0.2095
@<TRIPOS>BOND
     1    15     1    1
     2    28     1    1
     3    26     2    1
     4     2    68    1
     5     3    28    1
     6     3    32    1
     7     4    29    1
     8     4    72    1
     9    30     5    1
    10     5    73    1
    11    31     6    1
    12     6    76    1
    13    33     7    1
    14     7    77    1
    15     8    34    1
    16     8    78    1
    17     9    10    1
    18     9    12    1
    19     9    13    1
    20     9    20    1
    21    10    11    1
    22    10    14    1
    23    10    35    1
    24    11    15    1
    25    11    23    1
    26    11    24    1
    27    12    16    1
    28    12    18    1
    29    12    36    1
    30    13    17    1
    31    13    37    1
    32    13    38    1
    33    14    19    1
    34    14    39    1
    35    14    40    1
    36    15    17    1
    37    15    41    1
    38    16    19    1
    39    16    25    2
    40    17    42    1
    41    17    43    1
    42    18    22    1
    43    18    44    1
    44    18    45    1
    45    19    46    1
    46    19    47    1
    47    20    48    1
    48    20    49    1
    49    20    50    1
    50    21    22    1
    51    21    25    1
    52    21    26    1
    53    21    27    1
    54    22    51    1
    55    22    52    1
    56    23    54    1
    57    23    55    1
    58    23    56    1
    59    24    53    1
    60    24    57    1
    61    24    58    1
    62    25    59    1
    63    26    29    1
    64    26    60    1
    65    27    61    1
    66    27    62    1
    67    27    63    1
    68    28    30    1
    69    28    64    1
    70    29    65    1
    71    29    66    1
    72    30    31    1
    73    30    67    1
    74    31    33    1
    75    31    69    1
    76    32    33    1
    77    32    34    1
    78    32    70    1
    79    33    71    1
    80    34    74    1
    81    34    75    1
