@<TRIPOS>MOLECULE
IMPHY003721
 46 49 0 0 0
SMALL
GASTEIGER

@<TRIPOS>ATOM
      1 O           2.8662   -1.7466    0.0000 O.3     1  UNL1       -0.5062
      2 O           4.1956    2.4667    0.0000 O.2     1  UNL1       -0.2917
      3 C           7.0743   -1.6405    0.0000 C.3     1  UNL1       -0.0244
      4 C           7.1488   -0.6428    0.0000 C.3     1  UNL1       -0.0277
      5 C           6.2478   -1.0767    0.0000 C.3     1  UNL1       -0.0062
      6 C           7.3713    0.3321    0.0000 C.3     1  UNL1       -0.0451
      7 C           5.3469   -0.6428    0.0000 C.ar    1  UNL1       -0.0291
      8 C           8.0715   -1.7152    0.0000 C.3     1  UNL1       -0.0590
      9 C           6.5110   -2.4667    0.0000 C.3     1  UNL1       -0.0590
     10 C           6.7478    1.1140    0.0000 C.3     1  UNL1       -0.0274
     11 C           5.1243    0.3321    0.0000 C.ar    1  UNL1       -0.0077
     12 C           4.5943   -1.3630    0.0000 C.ar    1  UNL1       -0.0047
     13 C           5.7478    1.1140    0.0000 C.2     1  UNL1       -0.0463
     14 C           4.1338    0.6545    0.0000 C.ar    1  UNL1        0.0320
     15 C           3.3648   -0.0481    0.0000 C.ar    1  UNL1        0.0060
     16 C           3.5966   -1.0636    0.0000 C.ar    1  UNL1        0.1239
     17 C           2.4657    0.4654    0.0000 C.3     1  UNL1       -0.0139
     18 C           4.8281   -2.3353    0.0000 C.3     1  UNL1       -0.0360
     19 C           3.7034    1.5962    0.0000 C.2     1  UNL1        0.1672
     20 C           2.6745    1.4796    0.0000 C.3     1  UNL1        0.0234
     21 C           5.3139    2.0149    0.0000 C.2     1  UNL1       -0.0949
     22 C           2.0000    2.2179    0.0000 C.3     1  UNL1       -0.0551
     23 H           7.9893   -0.7694    0.0000 H       1  UNL1        0.0312
     24 H           5.8227   -1.8128    0.0000 H       1  UNL1        0.0357
     25 H           7.9299    0.0631    0.0000 H       1  UNL1        0.0271
     26 H           7.7579    0.8169    0.0000 H       1  UNL1        0.0271
     27 H           8.0252   -2.3335    0.0000 H       1  UNL1        0.0235
     28 H           8.6898   -1.7615    0.0000 H       1  UNL1        0.0235
     29 H           8.1178   -1.0969    0.0000 H       1  UNL1        0.0235
     30 H           5.9987   -2.1174    0.0000 H       1  UNL1        0.0235
     31 H           6.1617   -2.9790    0.0000 H       1  UNL1        0.0235
     32 H           7.0232   -2.8160    0.0000 H       1  UNL1        0.0235
     33 H           7.3064    1.3830    0.0000 H       1  UNL1        0.0313
     34 H           6.6099    1.7184    0.0000 H       1  UNL1        0.0313
     35 H           1.8749    0.6536    0.0000 H       1  UNL1        0.0321
     36 H           2.2165   -0.1023    0.0000 H       1  UNL1        0.0321
     37 H           4.2253   -2.4802    0.0000 H       1  UNL1        0.0279
     38 H           4.9730   -2.9381    0.0000 H       1  UNL1        0.0279
     39 H           5.4309   -2.1903    0.0000 H       1  UNL1        0.0279
     40 H           2.0767    1.3151    0.0000 H       1  UNL1        0.0381
     41 H           5.6632    2.5272    0.0000 H       1  UNL1        0.0538
     42 H           4.6957    2.0613    0.0000 H       1  UNL1        0.0538
     43 H           2.4577    2.6361    0.0000 H       1  UNL1        0.0237
     44 H           1.5818    2.6756    0.0000 H       1  UNL1        0.0237
     45 H           1.5423    1.7997    0.0000 H       1  UNL1        0.0237
     46 H           2.2730   -1.5662    0.0000 H       1  UNL1        0.2922
@<TRIPOS>BOND
     1     1    16    1
     2     1    46    1
     3     2    19    2
     4     3     4    1
     5     3     5    1
     6     3     8    1
     7     3     9    1
     8     4     5    1
     9     4     6    1
    10     4    23    1
    11     5     7    1
    12     5    24    1
    13     6    10    1
    14     6    25    1
    15     6    26    1
    16     7    11   ar
    17     7    12   ar
    18     8    27    1
    19     8    28    1
    20     8    29    1
    21     9    30    1
    22     9    31    1
    23     9    32    1
    24    10    13    1
    25    10    33    1
    26    10    34    1
    27    11    13    1
    28    11    14   ar
    29    12    16   ar
    30    12    18    1
    31    13    21    2
    32    14    15   ar
    33    14    19    1
    34    15    16   ar
    35    15    17    1
    36    17    20    1
    37    17    35    1
    38    17    36    1
    39    18    37    1
    40    18    38    1
    41    18    39    1
    42    19    20    1
    43    20    22    1
    44    20    40    1
    45    21    41    1
    46    21    42    1
    47    22    43    1
    48    22    44    1
    49    22    45    1
