@<TRIPOS>MOLECULE
IMPHY000379
 76 82 0 0 0
SMALL
GASTEIGER

@<TRIPOS>ATOM
      1 O           4.0000    1.9833    0.0000 O.3     1  UNL1       -0.3871
      2 O           6.3473    3.7006    0.0000 O.2     1  UNL1       -0.2958
      3 O          10.0577    2.6887    0.0000 O.3     1  UNL1       -0.4564
      4 O           6.0832   -1.7626    0.0000 O.3     1  UNL1       -0.4564
      5 O           9.2798   -1.4075    0.0000 O.3     1  UNL1       -0.3845
      6 O           2.4810    0.2996    0.0000 O.3     1  UNL1       -0.3845
      7 O          11.4944    3.7043    0.0000 O.2     1  UNL1       -0.2505
      8 O           6.5753   -3.4464    0.0000 O.2     1  UNL1       -0.2505
      9 C           5.9524    0.2940    0.0000 C.3     1  UNL1        0.0128
     10 C           5.6104    1.2337    0.0000 C.3     1  UNL1        0.0150
     11 C           7.5839    1.8519    0.0000 C.3     1  UNL1        0.0577
     12 C           7.3251    0.8860    0.0000 C.3     1  UNL1        0.0520
     13 C           8.9829    1.3431    0.0000 C.2     1  UNL1       -0.0133
     14 C           5.1675   -0.3160    0.0000 C.2     1  UNL1       -0.0177
     15 C           8.7241    0.3772    0.0000 C.2     1  UNL1       -0.0240
     16 C           4.6170    1.1964    0.0000 C.3     1  UNL1        0.0840
     17 C           6.8473    2.8345    0.0000 C.2     1  UNL1        0.1516
     18 C           4.3438    0.2406    0.0000 C.2     1  UNL1       -0.0069
     19 C           6.2944   -0.6457    0.0000 C.3     1  UNL1       -0.0544
     20 C           9.8845    1.7292    0.0000 C.3     1  UNL1        0.1289
     21 C           5.2378   -1.2885    0.0000 C.3     1  UNL1        0.1286
     22 C           9.3118   -0.4080    0.0000 C.3     1  UNL1        0.0853
     23 C           7.8428    2.8178    0.0000 C.3     1  UNL1       -0.0485
     24 C           3.4153   -0.0569    0.0000 C.3     1  UNL1        0.0870
     25 C          10.7497    1.2675    0.0000 C.3     1  UNL1        0.0129
     26 C           4.5232   -1.9517    0.0000 C.3     1  UNL1        0.0128
     27 C          10.2920   -0.4408    0.0000 C.3     1  UNL1       -0.0200
     28 C          10.9308    0.3035    0.0000 C.3     1  UNL1       -0.0429
     29 C           3.0666   -0.9674    0.0000 C.3     1  UNL1       -0.0199
     30 C           3.5587   -1.8090    0.0000 C.3     1  UNL1       -0.0429
     31 C          11.4504    1.9455    0.0000 C.3     1  UNL1        0.0601
     32 C           4.9329   -2.8300    0.0000 C.3     1  UNL1        0.0601
     33 C           8.5104   -1.0062    0.0000 C.3     1  UNL1       -0.0322
     34 C           3.1115    0.8958    0.0000 C.3     1  UNL1       -0.0321
     35 C          11.0236    2.8221    0.0000 C.2     1  UNL1        0.3109
     36 C           5.8951   -2.7134    0.0000 C.2     1  UNL1        0.3109
     37 C          12.4352    1.7720    0.0000 C.3     1  UNL1       -0.0519
     38 C           4.4475   -3.7043    0.0000 C.3     1  UNL1       -0.0519
     39 H           5.3197    2.0324    0.0000 H       1  UNL1        0.0350
     40 H           7.1051    0.0649    0.0000 H       1  UNL1        0.0433
     41 H           4.8778    1.7589    0.0000 H       1  UNL1        0.0645
     42 H           5.7118   -0.8578    0.0000 H       1  UNL1        0.0239
     43 H           6.5065   -1.2283    0.0000 H       1  UNL1        0.0239
     44 H           6.8770   -0.4337    0.0000 H       1  UNL1        0.0239
     45 H           9.2195    2.2587    0.0000 H       1  UNL1        0.0785
     46 H           5.9553   -0.8327    0.0000 H       1  UNL1        0.0785
     47 H           8.4416    2.6574    0.0000 H       1  UNL1        0.0242
     48 H           8.0032    3.4167    0.0000 H       1  UNL1        0.0242
     49 H           7.2439    2.9783    0.0000 H       1  UNL1        0.0242
     50 H          11.5597    1.0097    0.0000 H       1  UNL1        0.0348
     51 H           4.0152   -2.6332    0.0000 H       1  UNL1        0.0348
     52 H          10.1334   -1.0401    0.0000 H       1  UNL1        0.0296
     53 H          10.8408   -0.7292    0.0000 H       1  UNL1        0.0296
     54 H          11.2992   -0.1952    0.0000 H       1  UNL1        0.0270
     55 H          11.4992    0.5512    0.0000 H       1  UNL1        0.0270
     56 H           2.5518   -0.6218    0.0000 H       1  UNL1        0.0296
     57 H           2.6148   -1.3920    0.0000 H       1  UNL1        0.0296
     58 H           2.9670   -1.9945    0.0000 H       1  UNL1        0.0270
     59 H           3.6073   -2.4271    0.0000 H       1  UNL1        0.0270
     60 H          11.8236    2.4405    0.0000 H       1  UNL1        0.0415
     61 H           5.2791   -3.3444    0.0000 H       1  UNL1        0.0415
     62 H           4.2313    2.5586    0.0000 H       1  UNL1        0.2102
     63 H           8.1395   -0.5093    0.0000 H       1  UNL1        0.0260
     64 H           8.0135   -1.3770    0.0000 H       1  UNL1        0.0260
     65 H           8.8812   -1.5030    0.0000 H       1  UNL1        0.0260
     66 H           3.7022    1.0842    0.0000 H       1  UNL1        0.0260
     67 H           2.9232    1.4865    0.0000 H       1  UNL1        0.0260
     68 H           2.5208    0.7075    0.0000 H       1  UNL1        0.0260
     69 H           9.8065   -1.7346    0.0000 H       1  UNL1        0.2106
     70 H           2.0000   -0.0916    0.0000 H       1  UNL1        0.2106
     71 H          12.3277    1.1614    0.0000 H       1  UNL1        0.0238
     72 H          13.0458    1.6645    0.0000 H       1  UNL1        0.0238
     73 H          12.5428    2.3826    0.0000 H       1  UNL1        0.0238
     74 H           3.9055   -3.4034    0.0000 H       1  UNL1        0.0238
     75 H           4.1466   -4.2464    0.0000 H       1  UNL1        0.0238
     76 H           4.9896   -4.0052    0.0000 H       1  UNL1        0.0238
@<TRIPOS>BOND
     1    16     1    1
     2     1    62    1
     3     2    17    2
     4     3    20    1
     5     3    35    1
     6     4    21    1
     7     4    36    1
     8    22     5    1
     9     5    69    1
    10    24     6    1
    11     6    70    1
    12     7    35    2
    13     8    36    2
    14     9    10    1
    15     9    12    1
    16     9    14    1
    17     9    19    1
    18    10    11    1
    19    10    16    1
    20    10    39    1
    21    11    13    1
    22    11    17    1
    23    11    23    1
    24    12    15    1
    25    12    17    1
    26    12    40    1
    27    13    15    2
    28    13    20    1
    29    14    18    2
    30    14    21    1
    31    15    22    1
    32    16    18    1
    33    16    41    1
    34    18    24    1
    35    19    42    1
    36    19    43    1
    37    19    44    1
    38    20    25    1
    39    20    45    1
    40    21    26    1
    41    21    46    1
    42    22    27    1
    43    22    33    1
    44    23    47    1
    45    23    48    1
    46    23    49    1
    47    24    29    1
    48    24    34    1
    49    25    28    1
    50    25    31    1
    51    25    50    1
    52    26    30    1
    53    26    32    1
    54    26    51    1
    55    27    28    1
    56    27    52    1
    57    27    53    1
    58    28    54    1
    59    28    55    1
    60    29    30    1
    61    29    56    1
    62    29    57    1
    63    30    58    1
    64    30    59    1
    65    31    35    1
    66    31    37    1
    67    31    60    1
    68    32    36    1
    69    32    38    1
    70    32    61    1
    71    33    63    1
    72    33    64    1
    73    33    65    1
    74    34    66    1
    75    34    67    1
    76    34    68    1
    77    37    71    1
    78    37    72    1
    79    37    73    1
    80    38    74    1
    81    38    75    1
    82    38    76    1
