@<TRIPOS>MOLECULE
IMPHY011315
 124 131 0 0 0
SMALL
GASTEIGER

@<TRIPOS>ATOM
      1 O          19.5133    1.5438    0.0000 O.3     1  UNL1       -0.3876
      2 O          18.6338   -1.9529    0.0000 O.3     1  UNL1       -0.3911
      3 O          14.1244    2.6169    0.0000 O.3     1  UNL1       -0.3480
      4 O          20.7542   -3.3344    0.0000 O.3     1  UNL1       -0.4571
      5 O          12.3923    2.6169    0.0000 O.3     1  UNL1       -0.3456
      6 O          22.5137   -3.6169    0.0000 O.2     1  UNL1       -0.2456
      7 O          12.3923   -0.3831    0.0000 O.3     1  UNL1       -0.3890
      8 O          10.6603    0.6169    0.0000 O.3     1  UNL1       -0.3429
      9 O           9.7942    2.1169    0.0000 O.3     1  UNL1       -0.3456
     10 O           7.1962    2.6169    0.0000 O.3     1  UNL1       -0.3429
     11 O           7.1962    0.6169    0.0000 O.3     1  UNL1       -0.3890
     12 O           6.3301    1.1169    0.0000 O.3     1  UNL1       -0.3445
     13 O           3.7320    2.6169    0.0000 O.3     1  UNL1       -0.3879
     14 O           3.7320    0.6169    0.0000 O.3     1  UNL1       -0.4563
     15 O           2.8660    2.1169    0.0000 O.2     1  UNL1       -0.2512
     16 C          19.5095    0.5438    0.0000 C.3     1  UNL1        0.0774
     17 C          18.6454    1.0471    0.0000 C.3     1  UNL1       -0.0081
     18 C          17.7775    0.5504    0.0000 C.3     1  UNL1       -0.0276
     19 C          19.5056   -0.4562    0.0000 C.3     1  UNL1        0.0295
     20 C          16.8694    1.0608    0.0000 C.3     1  UNL1       -0.0258
     21 C          16.8654    2.1024    0.0000 C.3     1  UNL1       -0.0330
     22 C          18.6377   -0.9529    0.0000 C.3     1  UNL1        0.0641
     23 C          17.7736   -0.4496    0.0000 C.3     1  UNL1       -0.0225
     24 C          20.4507   -0.7646    0.0000 C.3     1  UNL1       -0.0057
     25 C          20.4569    0.8448    0.0000 C.3     1  UNL1       -0.0226
     26 C          18.6655    2.0885    0.0000 C.3     1  UNL1       -0.0470
     27 C          17.7695    2.6197    0.0000 C.3     1  UNL1       -0.0493
     28 C          21.0374    0.0379    0.0000 C.3     1  UNL1       -0.0431
     29 C          15.9404    0.5003    0.0000 C.3     1  UNL1       -0.0448
     30 C          19.5018   -1.4562    0.0000 C.3     1  UNL1       -0.0540
     31 C          15.9321    2.6557    0.0000 C.3     1  UNL1       -0.0232
     32 C          16.8733    0.0608    0.0000 C.3     1  UNL1       -0.0590
     33 C          14.9946    1.0319    0.0000 C.3     1  UNL1       -0.0260
     34 C          14.9904    2.1169    0.0000 C.3     1  UNL1        0.0620
     35 C          20.7577   -1.7163    0.0000 C.2     1  UNL1       -0.0221
     36 C          20.1682   -2.5241    0.0000 C.3     1  UNL1        0.1147
     37 C          21.7081   -2.0274    0.0000 C.2     1  UNL1        0.0252
     38 C          21.7059   -3.0274    0.0000 C.2     1  UNL1        0.3323
     39 C          13.2583    2.1169    0.0000 C.3     1  UNL1        0.1624
     40 C          13.2583    1.1169    0.0000 C.3     1  UNL1        0.0270
     41 C          12.3923    0.6169    0.0000 C.3     1  UNL1        0.0884
     42 C          11.5263    2.1169    0.0000 C.3     1  UNL1        0.0875
     43 C          11.5263    1.1169    0.0000 C.3     1  UNL1        0.1134
     44 C          10.6603    2.6169    0.0000 C.3     1  UNL1       -0.0361
     45 C           9.7942    1.1169    0.0000 C.3     1  UNL1        0.1626
     46 C           8.9282    0.6169    0.0000 C.3     1  UNL1        0.0270
     47 C           8.0622    1.1169    0.0000 C.3     1  UNL1        0.0884
     48 C           8.9282    2.6169    0.0000 C.3     1  UNL1        0.0875
     49 C           8.0622    2.1169    0.0000 C.3     1  UNL1        0.1134
     50 C           8.9282    3.6169    0.0000 C.3     1  UNL1       -0.0361
     51 C           6.3301    2.1169    0.0000 C.3     1  UNL1        0.1627
     52 C           5.4641    2.6169    0.0000 C.3     1  UNL1        0.0280
     53 C           4.5981    2.1169    0.0000 C.3     1  UNL1        0.0991
     54 C           4.5981    1.1169    0.0000 C.3     1  UNL1        0.1546
     55 C           5.4641    0.6169    0.0000 C.3     1  UNL1        0.0982
     56 C           5.4641   -0.3831    0.0000 C.3     1  UNL1       -0.0350
     57 C           2.8660    1.1169    0.0000 C.2     1  UNL1        0.3044
     58 C           2.0000    0.6169    0.0000 C.3     1  UNL1        0.0332
     59 H          19.3864    1.4635    0.0000 H       1  UNL1        0.0331
     60 H          18.5119    0.1226    0.0000 H       1  UNL1        0.0310
     61 H          16.8719    2.9524    0.0000 H       1  UNL1        0.0307
     62 H          17.8999   -1.3751    0.0000 H       1  UNL1        0.0600
     63 H          17.1634   -0.3395    0.0000 H       1  UNL1        0.0293
     64 H          17.5593   -1.0314    0.0000 H       1  UNL1        0.0293
     65 H          21.2899   -0.8997    0.0000 H       1  UNL1        0.0354
     66 H          20.9954    1.1520    0.0000 H       1  UNL1        0.0293
     67 H          20.2080    1.4127    0.0000 H       1  UNL1        0.0293
     68 H          19.2742    1.9707    0.0000 H       1  UNL1        0.0269
     69 H          18.8857    2.6681    0.0000 H       1  UNL1        0.0269
     70 H          18.1723    3.0911    0.0000 H       1  UNL1        0.0268
     71 H          17.3740    3.0972    0.0000 H       1  UNL1        0.0268
     72 H          21.4966   -0.3786    0.0000 H       1  UNL1        0.0272
     73 H          21.4998    0.4508    0.0000 H       1  UNL1        0.0272
     74 H          15.5486    0.0197    0.0000 H       1  UNL1        0.0271
     75 H          16.3468    0.0321    0.0000 H       1  UNL1        0.0271
     76 H          18.8818   -1.4538    0.0000 H       1  UNL1        0.0237
     77 H          19.4994   -2.0762    0.0000 H       1  UNL1        0.0237
     78 H          20.1218   -1.4586    0.0000 H       1  UNL1        0.0237
     79 H          16.3349    3.1271    0.0000 H       1  UNL1        0.0293
     80 H          15.5366    3.1332    0.0000 H       1  UNL1        0.0293
     81 H          16.2533    0.0584    0.0000 H       1  UNL1        0.0235
     82 H          16.8757   -0.5592    0.0000 H       1  UNL1        0.0235
     83 H          17.4933    0.0632    0.0000 H       1  UNL1        0.0235
     84 H          14.3833    1.1356    0.0000 H       1  UNL1        0.0290
     85 H          14.7878    0.4474    0.0000 H       1  UNL1        0.0290
     86 H          14.9920    2.9669    0.0000 H       1  UNL1        0.0597
     87 H          20.0515    1.8517    0.0000 H       1  UNL1        0.2102
     88 H          18.0957   -2.2608    0.0000 H       1  UNL1        0.2098
     89 H          19.7083   -2.1082    0.0000 H       1  UNL1        0.0746
     90 H          19.7065   -2.9380    0.0000 H       1  UNL1        0.0746
     91 H          22.2104   -1.6640    0.0000 H       1  UNL1        0.0689
     92 H          13.9945    1.6919    0.0000 H       1  UNL1        0.0910
     93 H          13.4704    0.5343    0.0000 H       1  UNL1        0.0340
     94 H          13.8689    1.2245    0.0000 H       1  UNL1        0.0340
     95 H          11.6562    0.1919    0.0000 H       1  UNL1        0.0622
     96 H          11.5263    2.9669    0.0000 H       1  UNL1        0.0621
     97 H          10.7902    1.5419    0.0000 H       1  UNL1        0.0649
     98 H          10.9703    3.1538    0.0000 H       1  UNL1        0.0255
     99 H          10.1233    2.9269    0.0000 H       1  UNL1        0.0255
    100 H          10.3503    2.0799    0.0000 H       1  UNL1        0.0255
    101 H          12.9292   -0.6931    0.0000 H       1  UNL1        0.2099
    102 H           9.7942    0.2669    0.0000 H       1  UNL1        0.0910
    103 H           8.5297    0.1419    0.0000 H       1  UNL1        0.0340
    104 H           9.3267    0.1419    0.0000 H       1  UNL1        0.0340
    105 H           8.0622    0.2669    0.0000 H       1  UNL1        0.0622
    106 H           9.6643    3.0419    0.0000 H       1  UNL1        0.0621
    107 H           8.0622    2.9669    0.0000 H       1  UNL1        0.0649
    108 H           9.5482    3.6169    0.0000 H       1  UNL1        0.0255
    109 H           8.9282    4.2369    0.0000 H       1  UNL1        0.0255
    110 H           8.3082    3.6169    0.0000 H       1  UNL1        0.0255
    111 H           7.1962   -0.0031    0.0000 H       1  UNL1        0.2099
    112 H           6.3301    2.9669    0.0000 H       1  UNL1        0.0910
    113 H           5.8626    3.0918    0.0000 H       1  UNL1        0.0340
    114 H           5.0656    3.0918    0.0000 H       1  UNL1        0.0340
    115 H           4.5981    2.9669    0.0000 H       1  UNL1        0.0633
    116 H           3.8620    1.5419    0.0000 H       1  UNL1        0.0786
    117 H           6.2002    0.1919    0.0000 H       1  UNL1        0.0632
    118 H           4.8441   -0.3831    0.0000 H       1  UNL1        0.0256
    119 H           5.4641   -1.0031    0.0000 H       1  UNL1        0.0256
    120 H           6.0841   -0.3831    0.0000 H       1  UNL1        0.0256
    121 H           3.7320    3.2369    0.0000 H       1  UNL1        0.2099
    122 H           1.6900    1.1538    0.0000 H       1  UNL1        0.0342
    123 H           1.4631    0.3069    0.0000 H       1  UNL1        0.0342
    124 H           2.3100    0.0799    0.0000 H       1  UNL1        0.0342
@<TRIPOS>BOND
     1     1    16    1
     2     1    87    1
     3     2    22    1
     4     2    88    1
     5     3    34    1
     6     3    39    1
     7     4    36    1
     8     4    38    1
     9     5    39    1
    10     5    42    1
    11     6    38    2
    12     7    41    1
    13     7   101    1
    14     8    43    1
    15     8    45    1
    16     9    45    1
    17     9    48    1
    18    10    49    1
    19    10    51    1
    20    11    47    1
    21    11   111    1
    22    12    51    1
    23    12    55    1
    24    13    53    1
    25    13   121    1
    26    14    54    1
    27    14    57    1
    28    15    57    2
    29    16    17    1
    30    16    19    1
    31    16    25    1
    32    17    18    1
    33    17    26    1
    34    17    59    1
    35    18    20    1
    36    18    23    1
    37    18    60    1
    38    19    22    1
    39    19    24    1
    40    19    30    1
    41    20    21    1
    42    20    29    1
    43    20    32    1
    44    21    27    1
    45    21    31    1
    46    21    61    1
    47    22    23    1
    48    22    62    1
    49    23    63    1
    50    23    64    1
    51    24    28    1
    52    24    35    1
    53    24    65    1
    54    25    28    1
    55    25    66    1
    56    25    67    1
    57    26    27    1
    58    26    68    1
    59    26    69    1
    60    27    70    1
    61    27    71    1
    62    28    72    1
    63    28    73    1
    64    29    33    1
    65    29    74    1
    66    29    75    1
    67    30    76    1
    68    30    77    1
    69    30    78    1
    70    31    34    1
    71    31    79    1
    72    31    80    1
    73    32    81    1
    74    32    82    1
    75    32    83    1
    76    33    34    1
    77    33    84    1
    78    33    85    1
    79    34    86    1
    80    35    36    1
    81    35    37    2
    82    36    89    1
    83    36    90    1
    84    37    38    1
    85    37    91    1
    86    39    40    1
    87    39    92    1
    88    40    41    1
    89    40    93    1
    90    40    94    1
    91    41    43    1
    92    41    95    1
    93    42    43    1
    94    42    44    1
    95    42    96    1
    96    43    97    1
    97    44    98    1
    98    44    99    1
    99    44   100    1
   100    45    46    1
   101    45   102    1
   102    46    47    1
   103    46   103    1
   104    46   104    1
   105    47    49    1
   106    47   105    1
   107    48    49    1
   108    48    50    1
   109    48   106    1
   110    49   107    1
   111    50   108    1
   112    50   109    1
   113    50   110    1
   114    51    52    1
   115    51   112    1
   116    52    53    1
   117    52   113    1
   118    52   114    1
   119    53    54    1
   120    53   115    1
   121    54    55    1
   122    54   116    1
   123    55    56    1
   124    55   117    1
   125    56   118    1
   126    56   119    1
   127    56   120    1
   128    57    58    1
   129    58   122    1
   130    58   123    1
   131    58   124    1
