@<TRIPOS>MOLECULE
IMPHY014194
 25 26 0 0 0
SMALL
GASTEIGER

@<TRIPOS>ATOM
      1 O           3.7320   -1.8246    0.0000 O.2     1  UNL1       -0.2868
      2 O           3.7320    2.1754    0.0000 O.2     1  UNL1       -0.2870
      3 O           5.4804   -1.8592    0.0000 O.3     1  UNL1       -0.5060
      4 C           4.5981   -0.3246    0.0000 C.ar    1  UNL1        0.0741
      5 C           4.5981    0.6754    0.0000 C.ar    1  UNL1        0.0362
      6 C           2.8660   -0.3246    0.0000 C.2     1  UNL1        0.0035
      7 C           2.8660    0.6754    0.0000 C.2     1  UNL1        0.0034
      8 C           3.7320   -0.8246    0.0000 C.2     1  UNL1        0.1935
      9 C           3.7320    1.1754    0.0000 C.2     1  UNL1        0.1901
     10 C           5.4920   -0.8593    0.0000 C.ar    1  UNL1        0.1283
     11 C           5.4920    1.2100    0.0000 C.ar    1  UNL1       -0.0500
     12 C           2.0000   -0.8246    0.0000 C.3     1  UNL1       -0.0357
     13 C           2.0000    1.1754    0.0000 C.3     1  UNL1       -0.0357
     14 C           6.3981   -0.3454    0.0000 C.ar    1  UNL1       -0.0194
     15 C           6.3981    0.6962    0.0000 C.ar    1  UNL1       -0.0576
     16 H           5.4848    1.8300    0.0000 H       1  UNL1        0.0625
     17 H           1.6900   -0.2877    0.0000 H       1  UNL1        0.0279
     18 H           1.4631   -1.1346    0.0000 H       1  UNL1        0.0279
     19 H           2.3100   -1.3615    0.0000 H       1  UNL1        0.0279
     20 H           2.3100    1.7123    0.0000 H       1  UNL1        0.0279
     21 H           1.4631    1.4854    0.0000 H       1  UNL1        0.0279
     22 H           1.6900    0.6385    0.0000 H       1  UNL1        0.0279
     23 H           6.9338   -0.6575    0.0000 H       1  UNL1        0.0654
     24 H           6.9338    1.0083    0.0000 H       1  UNL1        0.0619
     25 H           6.0138   -2.1754    0.0000 H       1  UNL1        0.2922
@<TRIPOS>BOND
     1     1     8    2
     2     2     9    2
     3     3    10    1
     4     3    25    1
     5     4     5   ar
     6     4     8    1
     7     4    10   ar
     8     5     9    1
     9     5    11   ar
    10     6     7    2
    11     6     8    1
    12     6    12    1
    13     7     9    1
    14     7    13    1
    15    10    14   ar
    16    11    15   ar
    17    11    16    1
    18    12    17    1
    19    12    18    1
    20    12    19    1
    21    13    20    1
    22    13    21    1
    23    13    22    1
    24    14    15   ar
    25    14    23    1
    26    15    24    1
