@<TRIPOS>MOLECULE
IMPHY013426
 97 102 0 0 0
SMALL
GASTEIGER

@<TRIPOS>ATOM
      1 O           5.9656    6.2819    0.0000 O.3     1  UNL1       -0.3609
      2 O           6.8671   -3.2873    0.0000 O.3     1  UNL1       -0.3313
      3 O           4.2690   -5.7873    0.0000 O.3     1  UNL1       -0.3405
      4 O           6.0010   -5.7873    0.0000 O.3     1  UNL1       -0.3460
      5 O           7.7331   -5.7873    0.0000 O.3     1  UNL1       -0.3865
      6 O           3.3694    5.7719    0.0000 O.3     1  UNL1       -0.3862
      7 O           3.3617    7.7719    0.0000 O.3     1  UNL1       -0.3865
      8 O           9.4651   -4.7873    0.0000 O.3     1  UNL1       -0.3864
      9 O           7.7331   -1.7873    0.0000 O.3     1  UNL1       -0.4572
     10 O           5.0899    8.7785    0.0000 O.3     1  UNL1       -0.3865
     11 O           6.0010   -7.7873    0.0000 O.3     1  UNL1       -0.3841
     12 O           4.2690   -8.7873    0.0000 O.3     1  UNL1       -0.3864
     13 O           9.4651   -2.7873    0.0000 O.3     1  UNL1       -0.3829
     14 O           2.5369   -7.7873    0.0000 O.3     1  UNL1       -0.3865
     15 O           6.8219    8.7852    0.0000 O.3     1  UNL1       -0.3924
     16 O           2.5369   -4.7873    0.0000 O.3     1  UNL1       -0.3924
     17 O           3.3733    4.7719    0.0000 O.3     1  UNL1       -0.4945
     18 O           6.8374    4.7852    0.0000 O.3     1  UNL1       -0.5054
     19 O           5.1010    1.7370    0.0000 O.2     1  UNL1       -0.4544
     20 O           7.7473    3.2919    0.0000 O.2     1  UNL1       -0.2869
     21 O           6.0010   -2.7873    0.0000 O.3     1  UNL1       -0.5033
     22 C           6.8671   -4.2873    0.0000 C.3     1  UNL1        0.1144
     23 C           7.7331   -4.7873    0.0000 C.3     1  UNL1        0.1120
     24 C           4.2335    6.2752    0.0000 C.3     1  UNL1        0.1139
     25 C           4.2296    7.2752    0.0000 C.3     1  UNL1        0.1121
     26 C           8.5991   -4.2873    0.0000 C.3     1  UNL1        0.1152
     27 C           5.1014    5.7786    0.0000 C.3     1  UNL1        0.1193
     28 C           5.0937    7.7785    0.0000 C.3     1  UNL1        0.1117
     29 C           5.1350   -7.2873    0.0000 C.3     1  UNL1        0.1341
     30 C           4.2690   -7.7873    0.0000 C.3     1  UNL1        0.1141
     31 C           5.1350   -6.2873    0.0000 C.3     1  UNL1        0.1880
     32 C           5.9617    7.2819    0.0000 C.3     1  UNL1        0.1108
     33 C           8.5991   -3.2873    0.0000 C.3     1  UNL1        0.1454
     34 C           3.4030   -7.2873    0.0000 C.3     1  UNL1        0.1119
     35 C           3.4030   -6.2873    0.0000 C.3     1  UNL1        0.1130
     36 C           7.7331   -2.7873    0.0000 C.3     1  UNL1        0.2310
     37 C           6.0010   -4.7873    0.0000 C.3     1  UNL1        0.0796
     38 C           5.1053    4.7786    0.0000 C.ar    1  UNL1        0.0676
     39 C           6.8258    7.7852    0.0000 C.3     1  UNL1        0.0729
     40 C           2.5369   -5.7873    0.0000 C.3     1  UNL1        0.0730
     41 C           5.9732    4.2819    0.0000 C.ar    1  UNL1        0.1404
     42 C           4.2412    4.2752    0.0000 C.ar    1  UNL1        0.1328
     43 C           5.9771    3.2819    0.0000 C.ar    1  UNL1        0.1058
     44 C           4.2451    3.2752    0.0000 C.ar    1  UNL1        0.0237
     45 C           5.1130    2.7786    0.0000 C.ar    1  UNL1        0.1463
     46 C           6.8671   -1.2873    0.0000 C.ar    1  UNL1        0.1658
     47 C           6.8891    2.7786    0.0000 C.ar    1  UNL1        0.1966
     48 C           6.8671   -0.2873    0.0000 C.ar    1  UNL1       -0.0055
     49 C           6.0010    1.2127    0.0000 C.ar    1  UNL1        0.1393
     50 C           6.0010    0.2127    0.0000 C.ar    1  UNL1        0.0211
     51 C           6.0010   -1.7873    0.0000 C.ar    1  UNL1        0.1586
     52 C           6.9011    1.7370    0.0000 C.ar    1  UNL1        0.0288
     53 C           5.1350   -0.2873    0.0000 C.ar    1  UNL1       -0.0474
     54 C           5.1350   -1.2873    0.0000 C.ar    1  UNL1       -0.0159
     55 C           2.5092    4.2686    0.0000 C.3     1  UNL1        0.0788
     56 H           6.3301   -3.9773    0.0000 H       1  UNL1        0.0647
     57 H           8.2700   -5.0973    0.0000 H       1  UNL1        0.0647
     58 H           4.7692    6.5873    0.0000 H       1  UNL1        0.0649
     59 H           3.6939    6.9631    0.0000 H       1  UNL1        0.0647
     60 H           9.1360   -3.9773    0.0000 H       1  UNL1        0.0648
     61 H           4.3670    5.3507    0.0000 H       1  UNL1        0.0676
     62 H           4.5556    8.0865    0.0000 H       1  UNL1        0.0647
     63 H           5.1350   -7.9073    0.0000 H       1  UNL1        0.0671
     64 H           3.7320   -8.0973    0.0000 H       1  UNL1        0.0648
     65 H           6.4998    6.9740    0.0000 H       1  UNL1        0.0646
     66 H           5.1350   -5.6673    0.0000 H       1  UNL1        0.0937
     67 H           8.5991   -2.6673    0.0000 H       1  UNL1        0.0683
     68 H           3.4030   -7.9073    0.0000 H       1  UNL1        0.0647
     69 H           3.4030   -5.6673    0.0000 H       1  UNL1        0.0647
     70 H           7.1962   -2.4773    0.0000 H       1  UNL1        0.1084
     71 H           5.7890   -4.2047    0.0000 H       1  UNL1        0.0587
     72 H           5.3905   -4.8949    0.0000 H       1  UNL1        0.0587
     73 H           7.0401    7.2034    0.0000 H       1  UNL1        0.0584
     74 H           7.4359    7.8952    0.0000 H       1  UNL1        0.0584
     75 H           1.9264   -5.6796    0.0000 H       1  UNL1        0.0584
     76 H           2.3249   -6.3699    0.0000 H       1  UNL1        0.0584
     77 H           8.2700   -6.0973    0.0000 H       1  UNL1        0.2100
     78 H           2.8313    6.0798    0.0000 H       1  UNL1        0.2100
     79 H           3.3593    8.3919    0.0000 H       1  UNL1        0.2100
     80 H          10.0021   -4.4773    0.0000 H       1  UNL1        0.2100
     81 H           4.5518    9.0865    0.0000 H       1  UNL1        0.2100
     82 H           6.5380   -7.4773    0.0000 H       1  UNL1        0.2101
     83 H           3.7320   -9.0973    0.0000 H       1  UNL1        0.2100
     84 H           9.4651   -2.1673    0.0000 H       1  UNL1        0.2102
     85 H           2.0000   -7.4773    0.0000 H       1  UNL1        0.2100
     86 H           3.7093    2.9632    0.0000 H       1  UNL1        0.0691
     87 H           7.3577    9.0973    0.0000 H       1  UNL1        0.2095
     88 H           2.0000   -4.4773    0.0000 H       1  UNL1        0.2095
     89 H           7.4040    0.0227    0.0000 H       1  UNL1        0.0662
     90 H           6.8350    5.4052    0.0000 H       1  UNL1        0.2922
     91 H           7.4404    1.4312    0.0000 H       1  UNL1        0.0693
     92 H           4.5981    0.0227    0.0000 H       1  UNL1        0.0626
     93 H           4.5981   -1.5973    0.0000 H       1  UNL1        0.0655
     94 H           2.1971    4.8043    0.0000 H       1  UNL1        0.0660
     95 H           1.9734    3.9565    0.0000 H       1  UNL1        0.0660
     96 H           2.8212    3.7328    0.0000 H       1  UNL1        0.0660
     97 H           5.4641   -3.0973    0.0000 H       1  UNL1        0.2923
@<TRIPOS>BOND
     1     1    27    1
     2     1    32    1
     3     2    22    1
     4     2    36    1
     5     3    31    1
     6     3    35    1
     7    31     4    1
     8     4    37    1
     9    23     5    1
    10     5    77    1
    11     6    24    1
    12     6    78    1
    13    25     7    1
    14     7    79    1
    15    26     8    1
    16     8    80    1
    17    36     9    1
    18     9    46    1
    19    28    10    1
    20    10    81    1
    21    11    29    1
    22    11    82    1
    23    30    12    1
    24    12    83    1
    25    13    33    1
    26    13    84    1
    27    34    14    1
    28    14    85    1
    29    15    39    1
    30    15    87    1
    31    16    40    1
    32    16    88    1
    33    17    42    1
    34    17    55    1
    35    18    41    1
    36    18    90    1
    37    19    45   ar
    38    19    49   ar
    39    20    47    2
    40    21    51    1
    41    21    97    1
    42    22    23    1
    43    22    37    1
    44    22    56    1
    45    23    26    1
    46    23    57    1
    47    24    25    1
    48    24    27    1
    49    24    58    1
    50    25    28    1
    51    25    59    1
    52    26    33    1
    53    26    60    1
    54    27    38    1
    55    27    61    1
    56    28    32    1
    57    28    62    1
    58    29    30    1
    59    29    31    1
    60    29    63    1
    61    30    34    1
    62    30    64    1
    63    31    66    1
    64    32    39    1
    65    32    65    1
    66    33    36    1
    67    33    67    1
    68    34    35    1
    69    34    68    1
    70    35    40    1
    71    35    69    1
    72    36    70    1
    73    37    71    1
    74    37    72    1
    75    38    41   ar
    76    38    42   ar
    77    39    73    1
    78    39    74    1
    79    40    75    1
    80    40    76    1
    81    41    43   ar
    82    42    44   ar
    83    43    45   ar
    84    43    47   ar
    85    44    45   ar
    86    44    86    1
    87    46    48   ar
    88    46    51   ar
    89    47    52   ar
    90    48    50   ar
    91    48    89    1
    92    49    50    1
    93    49    52   ar
    94    50    53   ar
    95    51    54   ar
    96    52    91    1
    97    53    54   ar
    98    53    92    1
    99    54    93    1
   100    55    94    1
   101    55    95    1
   102    55    96    1
