@<TRIPOS>MOLECULE
IMPHY007604
 53 55 0 0 0
SMALL
GASTEIGER

@<TRIPOS>ATOM
      1 S           6.0010   -1.2209    0.0000 S.3     1  UNL1       -0.0725
      2 S           8.5991    0.2791    0.0000 S.O2    1  UNL1        0.2709
      3 O           4.2690   -1.2209    0.0000 O.3     1  UNL1       -0.3549
      4 O           4.2690   -4.2209    0.0000 O.3     1  UNL1       -0.3865
      5 O           2.5369   -3.2209    0.0000 O.3     1  UNL1       -0.3865
      6 O           6.0010   -3.2209    0.0000 O.3     1  UNL1       -0.3857
      7 O           2.5369   -0.2209    0.0000 O.3     1  UNL1       -0.3924
      8 O           6.2256    3.6159    0.0000 O.3     1  UNL1       -0.4147
      9 O           7.7331   -0.2209    0.0000 O.2     1  UNL1       -0.2068
     10 O           8.0991    1.1451    0.0000 O.3     1  UNL1       -0.2209
     11 O           9.4651    0.7791    0.0000 O.2     1  UNL1       -0.1060
     12 O           9.0991   -0.5869    0.0000 O.2     1  UNL1       -0.1060
     13 N           5.6350    2.8090    0.0000 N.ar    1  UNL1       -0.1895
     14 N           6.8671    0.2791    0.0000 N.2     1  UNL1       -0.0479
     15 C           4.2690   -3.2209    0.0000 C.3     1  UNL1        0.1126
     16 C           3.4030   -2.7209    0.0000 C.3     1  UNL1        0.1118
     17 C           5.1350   -2.7209    0.0000 C.3     1  UNL1        0.1192
     18 C           3.4030   -1.7209    0.0000 C.3     1  UNL1        0.1115
     19 C           5.1350   -1.7209    0.0000 C.3     1  UNL1        0.1384
     20 C           2.5369   -1.2209    0.0000 C.3     1  UNL1        0.0730
     21 C           6.0010   -0.2209    0.0000 C.2     1  UNL1        0.1225
     22 C           5.1350    0.2791    0.0000 C.3     1  UNL1        0.0264
     23 C           5.1350    1.2791    0.0000 C.ar    1  UNL1       -0.0123
     24 C           4.3303    1.8627    0.0000 C.ar    1  UNL1        0.0068
     25 C           4.6409    2.8132    0.0000 C.ar    1  UNL1        0.0876
     26 C           5.9397    1.8627    0.0000 C.ar    1  UNL1        0.0488
     27 C           3.3518    1.6565    0.0000 C.ar    1  UNL1       -0.0522
     28 C           3.9731    3.5576    0.0000 C.ar    1  UNL1       -0.0343
     29 C           2.6839    2.4008    0.0000 C.ar    1  UNL1       -0.0611
     30 C           2.9946    3.3513    0.0000 C.ar    1  UNL1       -0.0597
     31 C           5.8220    4.5309    0.0000 C.3     1  UNL1        0.1052
     32 H           4.8059   -3.5309    0.0000 H       1  UNL1        0.0647
     33 H           3.4030   -3.3409    0.0000 H       1  UNL1        0.0647
     34 H           5.6720   -2.4109    0.0000 H       1  UNL1        0.0655
     35 H           3.4030   -1.1009    0.0000 H       1  UNL1        0.0646
     36 H           5.1350   -1.1009    0.0000 H       1  UNL1        0.0743
     37 H           1.9264   -1.1132    0.0000 H       1  UNL1        0.0584
     38 H           2.3249   -1.8035    0.0000 H       1  UNL1        0.0584
     39 H           3.7320   -4.5309    0.0000 H       1  UNL1        0.2100
     40 H           2.0000   -2.9109    0.0000 H       1  UNL1        0.2100
     41 H           6.5380   -2.9109    0.0000 H       1  UNL1        0.2100
     42 H           4.5244    0.3868    0.0000 H       1  UNL1        0.0384
     43 H           4.9230   -0.3035    0.0000 H       1  UNL1        0.0384
     44 H           2.0000    0.0891    0.0000 H       1  UNL1        0.2095
     45 H           6.5291    1.6701    0.0000 H       1  UNL1        0.0847
     46 H           3.1592    1.0672    0.0000 H       1  UNL1        0.0624
     47 H           4.1657    4.1469    0.0000 H       1  UNL1        0.0639
     48 H           2.0773    2.2730    0.0000 H       1  UNL1        0.0618
     49 H           2.5805    3.8128    0.0000 H       1  UNL1        0.0618
     50 H           6.3893    4.7811    0.0000 H       1  UNL1        0.0686
     51 H           5.5718    5.0981    0.0000 H       1  UNL1        0.0686
     52 H           5.2547    4.2807    0.0000 H       1  UNL1        0.0686
     53 H           8.4091    1.6821    0.0000 H       1  UNL1        0.2480
@<TRIPOS>BOND
     1    19     1    1
     2     1    21    1
     3     2     9    1
     4     2    10    1
     5     2    11    2
     6     2    12    2
     7     3    18    1
     8     3    19    1
     9    15     4    1
    10     4    39    1
    11    16     5    1
    12     5    40    1
    13    17     6    1
    14     6    41    1
    15     7    20    1
    16     7    44    1
    17     8    13    1
    18     8    31    1
    19     9    14    1
    20    10    53    1
    21    13    25   ar
    22    13    26   ar
    23    14    21    2
    24    15    16    1
    25    15    17    1
    26    15    32    1
    27    16    18    1
    28    16    33    1
    29    17    19    1
    30    17    34    1
    31    18    20    1
    32    18    35    1
    33    19    36    1
    34    20    37    1
    35    20    38    1
    36    21    22    1
    37    22    23    1
    38    22    42    1
    39    22    43    1
    40    23    24   ar
    41    23    26   ar
    42    24    25   ar
    43    24    27   ar
    44    25    28   ar
    45    26    45    1
    46    27    29   ar
    47    27    46    1
    48    28    30   ar
    49    28    47    1
    50    29    30   ar
    51    29    48    1
    52    30    49    1
    53    31    50    1
    54    31    51    1
    55    31    52    1
