@<TRIPOS>MOLECULE
IMPHY002843
 172 182 0 0 0
SMALL
GASTEIGER

@<TRIPOS>ATOM
      1 O          21.0893    6.3437    0.0000 O.3     1  UNL1       -0.3448
      2 O          22.7505    5.2561    0.0000 O.3     1  UNL1       -0.3480
      3 O          14.6613    0.9892    0.0000 O.3     1  UNL1       -0.3451
      4 O          13.7953    2.4892    0.0000 O.3     1  UNL1       -0.3461
      5 O          12.9292   -0.0108    0.0000 O.3     1  UNL1       -0.3378
      6 O          11.1972    0.9892    0.0000 O.3     1  UNL1       -0.3864
      7 O          11.1972    2.9892    0.0000 O.3     1  UNL1       -0.3869
      8 O          11.1972   -0.0108    0.0000 O.3     1  UNL1       -0.3431
      9 O          12.9292   -2.0108    0.0000 O.3     1  UNL1       -0.3841
     10 O          11.1972   -3.0108    0.0000 O.3     1  UNL1       -0.3864
     11 O           9.4651   -2.0108    0.0000 O.3     1  UNL1       -0.3402
     12 O           8.5991   -0.5108    0.0000 O.3     1  UNL1       -0.3405
     13 O           7.7331   -3.0108    0.0000 O.3     1  UNL1       -0.3377
     14 O           6.0010   -2.0108    0.0000 O.3     1  UNL1       -0.3400
     15 O           6.0010   -0.0108    0.0000 O.3     1  UNL1       -0.3865
     16 O           6.4062   -4.1241    0.0000 O.3     1  UNL1       -0.3405
     17 O           5.1350   -0.5108    0.0000 O.3     1  UNL1       -0.3405
     18 O           8.5991    1.4892    0.0000 O.3     1  UNL1       -0.3924
     19 O           9.0187   -4.5428    0.0000 O.3     1  UNL1       -0.3841
     20 O           4.2690   -3.0108    0.0000 O.3     1  UNL1       -0.3841
     21 O           8.3347   -6.4223    0.0000 O.3     1  UNL1       -0.3864
     22 O           6.3650   -6.7696    0.0000 O.3     1  UNL1       -0.3865
     23 O           2.5369   -2.0108    0.0000 O.3     1  UNL1       -0.3864
     24 O           2.5369   -0.0108    0.0000 O.3     1  UNL1       -0.3865
     25 O           4.7374   -6.1771    0.0000 O.3     1  UNL1       -0.3924
     26 O           3.4030    1.4892    0.0000 O.3     1  UNL1       -0.3924
     27 C          20.0133    4.1130    0.0000 C.3     1  UNL1       -0.0233
     28 C          19.1492    4.6163    0.0000 C.3     1  UNL1       -0.0295
     29 C          20.7529    4.7772    0.0000 C.3     1  UNL1       -0.0015
     30 C          18.2813    4.1197    0.0000 C.3     1  UNL1       -0.0306
     31 C          20.3513    5.6866    0.0000 C.3     1  UNL1        0.0660
     32 C          18.2774    3.1197    0.0000 C.3     1  UNL1       -0.0285
     33 C          19.3622    5.5873    0.0000 C.3     1  UNL1       -0.0226
     34 C          20.0095    3.1130    0.0000 C.3     1  UNL1       -0.0467
     35 C          21.7357    4.8801    0.0000 C.3     1  UNL1        0.0160
     36 C          19.1415    2.6163    0.0000 C.3     1  UNL1       -0.0486
     37 C          17.3814    2.5885    0.0000 C.3     1  UNL1       -0.0078
     38 C          21.9432    5.8463    0.0000 C.3     1  UNL1        0.1732
     39 C          20.8774    3.6096    0.0000 C.3     1  UNL1       -0.0590
     40 C          17.3894    4.6578    0.0000 C.3     1  UNL1       -0.0311
     41 C          16.4773    3.1058    0.0000 C.2     1  UNL1       -0.0648
     42 C          17.4023    1.5037    0.0000 C.3     1  UNL1       -0.0413
     43 C          22.4039    4.1362    0.0000 C.3     1  UNL1       -0.0572
     44 C          22.0507    6.8405    0.0000 C.3     1  UNL1        0.0020
     45 C          16.4814    4.1474    0.0000 C.2     1  UNL1       -0.0839
     46 C          18.2494    2.0918    0.0000 C.3     1  UNL1       -0.0556
     47 C          15.5315    2.5742    0.0000 C.3     1  UNL1       -0.0047
     48 C          16.4690    0.9503    0.0000 C.3     1  UNL1       -0.0254
     49 C          15.5273    1.4892    0.0000 C.3     1  UNL1        0.0655
     50 C          22.9655    7.2445    0.0000 C.3     1  UNL1       -0.0435
     51 C          23.7727    6.6543    0.0000 C.3     1  UNL1       -0.0201
     52 C          23.6652    5.6601    0.0000 C.3     1  UNL1        0.0535
     53 C          24.6875    7.0583    0.0000 C.3     1  UNL1       -0.0603
     54 C          13.7953    1.4892    0.0000 C.3     1  UNL1        0.1882
     55 C          12.9292    0.9892    0.0000 C.3     1  UNL1        0.1406
     56 C          12.0632    1.4892    0.0000 C.3     1  UNL1        0.1141
     57 C          12.9292    2.9892    0.0000 C.3     1  UNL1        0.0792
     58 C          12.0632    2.4892    0.0000 C.3     1  UNL1        0.1069
     59 C          12.0632   -0.5108    0.0000 C.3     1  UNL1        0.1884
     60 C          12.0632   -1.5108    0.0000 C.3     1  UNL1        0.1341
     61 C          11.1972   -2.0108    0.0000 C.3     1  UNL1        0.1143
     62 C          10.3312   -0.5108    0.0000 C.3     1  UNL1        0.0877
     63 C          10.3312   -1.5108    0.0000 C.3     1  UNL1        0.1160
     64 C           9.4651   -0.0108    0.0000 C.3     1  UNL1       -0.0361
     65 C           8.5991   -1.5108    0.0000 C.3     1  UNL1        0.1888
     66 C           7.7331   -2.0108    0.0000 C.3     1  UNL1        0.1410
     67 C           6.8671   -1.5108    0.0000 C.3     1  UNL1        0.1209
     68 C           7.7331   -0.0108    0.0000 C.3     1  UNL1        0.1130
     69 C           6.8671   -0.5108    0.0000 C.3     1  UNL1        0.1123
     70 C           7.7331    0.9892    0.0000 C.3     1  UNL1        0.0730
     71 C           7.3910   -3.9505    0.0000 C.3     1  UNL1        0.1885
     72 C           5.1350   -1.5108    0.0000 C.3     1  UNL1        0.1884
     73 C           8.0339   -4.7165    0.0000 C.3     1  UNL1        0.1341
     74 C           4.2690   -2.0108    0.0000 C.3     1  UNL1        0.1341
     75 C           7.6918   -5.6562    0.0000 C.3     1  UNL1        0.1141
     76 C           6.0642   -5.0638    0.0000 C.3     1  UNL1        0.1130
     77 C           6.7070   -5.8299    0.0000 C.3     1  UNL1        0.1119
     78 C           3.4030   -1.5108    0.0000 C.3     1  UNL1        0.1141
     79 C           4.2690   -0.0108    0.0000 C.3     1  UNL1        0.1130
     80 C           3.4030   -0.5108    0.0000 C.3     1  UNL1        0.1119
     81 C           5.0794   -5.2374    0.0000 C.3     1  UNL1        0.0730
     82 C           4.2690    0.9892    0.0000 C.3     1  UNL1        0.0730
     83 H          18.6495    4.9833    0.0000 H       1  UNL1        0.0310
     84 H          21.0046    4.2106    0.0000 H       1  UNL1        0.0335
     85 H          18.2884    4.7396    0.0000 H       1  UNL1        0.0310
     86 H          20.1020    6.2543    0.0000 H       1  UNL1        0.0600
     87 H          18.8155    3.4276    0.0000 H       1  UNL1        0.0312
     88 H          19.3655    6.2073    0.0000 H       1  UNL1        0.0293
     89 H          18.7460    5.6558    0.0000 H       1  UNL1        0.0293
     90 H          20.2193    2.5296    0.0000 H       1  UNL1        0.0271
     91 H          20.6204    3.2183    0.0000 H       1  UNL1        0.0271
     92 H          21.5130    4.3015    0.0000 H       1  UNL1        0.0354
     93 H          18.7412    2.1429    0.0000 H       1  UNL1        0.0268
     94 H          19.5382    2.1399    0.0000 H       1  UNL1        0.0268
     95 H          20.5653    3.0739    0.0000 H       1  UNL1        0.0235
     96 H          21.4131    3.2976    0.0000 H       1  UNL1        0.0235
     97 H          21.1895    4.1454    0.0000 H       1  UNL1        0.0235
     98 H          17.7958    5.1260    0.0000 H       1  UNL1        0.0310
     99 H          16.9976    5.1383    0.0000 H       1  UNL1        0.0310
    100 H          17.6226    0.9241    0.0000 H       1  UNL1        0.0274
    101 H          18.0110    1.6215    0.0000 H       1  UNL1        0.0274
    102 H          21.9426    3.7219    0.0000 H       1  UNL1        0.0234
    103 H          22.8182    3.6749    0.0000 H       1  UNL1        0.0234
    104 H          22.8652    4.5504    0.0000 H       1  UNL1        0.0234
    105 H          21.9025    7.4425    0.0000 H       1  UNL1        0.0317
    106 H          21.4321    6.7991    0.0000 H       1  UNL1        0.0317
    107 H          15.9468    4.4616    0.0000 H       1  UNL1        0.0572
    108 H          17.9414    1.5537    0.0000 H       1  UNL1        0.0238
    109 H          18.7875    1.7839    0.0000 H       1  UNL1        0.0238
    110 H          18.5573    2.6299    0.0000 H       1  UNL1        0.0238
    111 H          15.3247    3.1587    0.0000 H       1  UNL1        0.0335
    112 H          14.9202    2.4705    0.0000 H       1  UNL1        0.0335
    113 H          16.0736    0.4728    0.0000 H       1  UNL1        0.0290
    114 H          16.8718    0.4790    0.0000 H       1  UNL1        0.0290
    115 H          15.5285    0.8692    0.0000 H       1  UNL1        0.0600
    116 H          23.4128    7.6739    0.0000 H       1  UNL1        0.0270
    117 H          22.6203    7.7595    0.0000 H       1  UNL1        0.0270
    118 H          24.2732    6.2884    0.0000 H       1  UNL1        0.0320
    119 H          23.8134    5.0581    0.0000 H       1  UNL1        0.0563
    120 H          24.2839    5.7015    0.0000 H       1  UNL1        0.0563
    121 H          24.9380    6.4912    0.0000 H       1  UNL1        0.0233
    122 H          25.2546    7.3088    0.0000 H       1  UNL1        0.0233
    123 H          24.4370    7.6255    0.0000 H       1  UNL1        0.0233
    124 H          13.7953    0.8692    0.0000 H       1  UNL1        0.0937
    125 H          12.3923    0.6792    0.0000 H       1  UNL1        0.0675
    126 H          11.5263    1.7992    0.0000 H       1  UNL1        0.0648
    127 H          13.3278    3.4642    0.0000 H       1  UNL1        0.0587
    128 H          12.5307    3.4642    0.0000 H       1  UNL1        0.0587
    129 H          12.0632    3.1092    0.0000 H       1  UNL1        0.0643
    130 H          12.6002   -0.8208    0.0000 H       1  UNL1        0.0938
    131 H          10.6603    1.2992    0.0000 H       1  UNL1        0.2100
    132 H          11.1972    3.6092    0.0000 H       1  UNL1        0.2100
    133 H          12.0632   -2.1308    0.0000 H       1  UNL1        0.0671
    134 H          10.6603   -2.3208    0.0000 H       1  UNL1        0.0648
    135 H          10.3312    0.1092    0.0000 H       1  UNL1        0.0621
    136 H           9.7942   -1.2008    0.0000 H       1  UNL1        0.0650
    137 H          13.4662   -1.7008    0.0000 H       1  UNL1        0.2101
    138 H           9.7751    0.5261    0.0000 H       1  UNL1        0.0255
    139 H           8.9282    0.2992    0.0000 H       1  UNL1        0.0255
    140 H           9.1551   -0.5477    0.0000 H       1  UNL1        0.0255
    141 H          11.7341   -3.3208    0.0000 H       1  UNL1        0.2100
    142 H           8.5991   -2.1308    0.0000 H       1  UNL1        0.0938
    143 H           7.1962   -2.3208    0.0000 H       1  UNL1        0.0675
    144 H           6.3301   -1.2008    0.0000 H       1  UNL1        0.0651
    145 H           8.2700    0.2992    0.0000 H       1  UNL1        0.0647
    146 H           6.8671    0.1092    0.0000 H       1  UNL1        0.0647
    147 H           6.9925   -3.4755    0.0000 H       1  UNL1        0.0938
    148 H           7.5210    1.5718    0.0000 H       1  UNL1        0.0584
    149 H           7.1225    0.8815    0.0000 H       1  UNL1        0.0584
    150 H           5.1350   -2.1308    0.0000 H       1  UNL1        0.0938
    151 H           8.4324   -5.1915    0.0000 H       1  UNL1        0.0671
    152 H           6.0010    0.6092    0.0000 H       1  UNL1        0.2100
    153 H           3.7320   -2.3208    0.0000 H       1  UNL1        0.0671
    154 H           7.4798   -6.2388    0.0000 H       1  UNL1        0.0648
    155 H           5.6656   -4.5888    0.0000 H       1  UNL1        0.0647
    156 H           6.0964   -5.9375    0.0000 H       1  UNL1        0.0647
    157 H           2.8660   -1.2008    0.0000 H       1  UNL1        0.0648
    158 H           4.8059    0.2992    0.0000 H       1  UNL1        0.0647
    159 H           3.4030    0.1092    0.0000 H       1  UNL1        0.0647
    160 H           8.5991    2.1092    0.0000 H       1  UNL1        0.2095
    161 H           5.0794   -4.6174    0.0000 H       1  UNL1        0.0584
    162 H           4.4688   -5.1297    0.0000 H       1  UNL1        0.0584
    163 H           9.4173   -5.0178    0.0000 H       1  UNL1        0.2101
    164 H           4.8796    0.8815    0.0000 H       1  UNL1        0.0584
    165 H           4.4810    1.5718    0.0000 H       1  UNL1        0.0584
    166 H           3.7320   -3.3208    0.0000 H       1  UNL1        0.2101
    167 H           8.1226   -7.0049    0.0000 H       1  UNL1        0.2100
    168 H           6.7635   -7.2445    0.0000 H       1  UNL1        0.2100
    169 H           2.0000   -1.7008    0.0000 H       1  UNL1        0.2100
    170 H           2.5369    0.6092    0.0000 H       1  UNL1        0.2100
    171 H           4.1268   -6.2848    0.0000 H       1  UNL1        0.2095
    172 H           3.4030    2.1092    0.0000 H       1  UNL1        0.2095
@<TRIPOS>BOND
     1     1    31    1
     2     1    38    1
     3     2    38    1
     4     2    52    1
     5     3    49    1
     6     3    54    1
     7     4    54    1
     8     4    57    1
     9     5    55    1
    10     5    59    1
    11     6    56    1
    12     6   131    1
    13     7    58    1
    14     7   132    1
    15     8    59    1
    16     8    62    1
    17     9    60    1
    18     9   137    1
    19    10    61    1
    20    10   141    1
    21    11    63    1
    22    11    65    1
    23    12    65    1
    24    12    68    1
    25    13    66    1
    26    13    71    1
    27    14    67    1
    28    14    72    1
    29    15    69    1
    30    15   152    1
    31    16    71    1
    32    16    76    1
    33    17    72    1
    34    17    79    1
    35    18    70    1
    36    18   160    1
    37    19    73    1
    38    19   163    1
    39    20    74    1
    40    20   166    1
    41    21    75    1
    42    21   167    1
    43    22    77    1
    44    22   168    1
    45    23    78    1
    46    23   169    1
    47    24    80    1
    48    24   170    1
    49    25    81    1
    50    25   171    1
    51    26    82    1
    52    26   172    1
    53    27    28    1
    54    27    29    1
    55    27    34    1
    56    27    39    1
    57    28    30    1
    58    28    33    1
    59    28    83    1
    60    29    31    1
    61    29    35    1
    62    29    84    1
    63    30    32    1
    64    30    40    1
    65    30    85    1
    66    31    33    1
    67    31    86    1
    68    32    36    1
    69    32    37    1
    70    32    87    1
    71    33    88    1
    72    33    89    1
    73    34    36    1
    74    34    90    1
    75    34    91    1
    76    35    38    1
    77    35    43    1
    78    35    92    1
    79    36    93    1
    80    36    94    1
    81    37    41    1
    82    37    42    1
    83    37    46    1
    84    38    44    1
    85    39    95    1
    86    39    96    1
    87    39    97    1
    88    40    45    1
    89    40    98    1
    90    40    99    1
    91    41    45    2
    92    41    47    1
    93    42    48    1
    94    42   100    1
    95    42   101    1
    96    43   102    1
    97    43   103    1
    98    43   104    1
    99    44    50    1
   100    44   105    1
   101    44   106    1
   102    45   107    1
   103    46   108    1
   104    46   109    1
   105    46   110    1
   106    47    49    1
   107    47   111    1
   108    47   112    1
   109    48    49    1
   110    48   113    1
   111    48   114    1
   112    49   115    1
   113    50    51    1
   114    50   116    1
   115    50   117    1
   116    51    52    1
   117    51    53    1
   118    51   118    1
   119    52   119    1
   120    52   120    1
   121    53   121    1
   122    53   122    1
   123    53   123    1
   124    54    55    1
   125    54   124    1
   126    55    56    1
   127    55   125    1
   128    56    58    1
   129    56   126    1
   130    57    58    1
   131    57   127    1
   132    57   128    1
   133    58   129    1
   134    59    60    1
   135    59   130    1
   136    60    61    1
   137    60   133    1
   138    61    63    1
   139    61   134    1
   140    62    63    1
   141    62    64    1
   142    62   135    1
   143    63   136    1
   144    64   138    1
   145    64   139    1
   146    64   140    1
   147    65    66    1
   148    65   142    1
   149    66    67    1
   150    66   143    1
   151    67    69    1
   152    67   144    1
   153    68    69    1
   154    68    70    1
   155    68   145    1
   156    69   146    1
   157    70   148    1
   158    70   149    1
   159    71    73    1
   160    71   147    1
   161    72    74    1
   162    72   150    1
   163    73    75    1
   164    73   151    1
   165    74    78    1
   166    74   153    1
   167    75    77    1
   168    75   154    1
   169    76    77    1
   170    76    81    1
   171    76   155    1
   172    77   156    1
   173    78    80    1
   174    78   157    1
   175    79    80    1
   176    79    82    1
   177    79   158    1
   178    80   159    1
   179    81   161    1
   180    81   162    1
   181    82   164    1
   182    82   165    1
