@<TRIPOS>MOLECULE
IMPHY008947
 159 167 0 0 0
SMALL
GASTEIGER

@<TRIPOS>ATOM
      1 O          22.1241    2.1485    0.0000 O.3     1  UNL1       -0.3849
      2 O          21.5601    2.4770    0.0000 O.3     1  UNL1       -0.3851
      3 O          20.9028   -1.2866    0.0000 O.3     1  UNL1       -0.4571
      4 O          22.4086   -1.0487    0.0000 O.3     1  UNL1       -0.3803
      5 O          16.3933    3.2832    0.0000 O.3     1  UNL1       -0.3477
      6 O          23.4208   -1.6821    0.0000 O.2     1  UNL1       -0.2946
      7 O          19.1708   -1.2799    0.0000 O.2     1  UNL1       -0.2450
      8 O          14.6613    3.2832    0.0000 O.3     1  UNL1       -0.3456
      9 O          14.6613    0.2832    0.0000 O.3     1  UNL1       -0.3770
     10 O          12.9292    1.2832    0.0000 O.3     1  UNL1       -0.3429
     11 O          12.0632    2.7832    0.0000 O.3     1  UNL1       -0.3456
     12 O           9.4651    1.2832    0.0000 O.3     1  UNL1       -0.3770
     13 O           9.4651    3.2832    0.0000 O.3     1  UNL1       -0.3429
     14 O           7.7331    3.2832    0.0000 O.3     1  UNL1       -0.3456
     15 O           6.0010    1.2832    0.0000 O.3     1  UNL1       -0.3429
     16 O           7.7331    0.2832    0.0000 O.3     1  UNL1       -0.3770
     17 O           4.2690    1.2832    0.0000 O.3     1  UNL1       -0.3456
     18 O           4.2690    4.2832    0.0000 O.3     1  UNL1       -0.3770
     19 O           2.5369    3.2832    0.0000 O.3     1  UNL1       -0.3867
     20 C          21.7785    1.2101    0.0000 C.3     1  UNL1        0.1070
     21 C          21.7746    0.2101    0.0000 C.3     1  UNL1        0.0718
     22 C          20.9144    1.7134    0.0000 C.3     1  UNL1        0.1024
     23 C          20.0464    1.2168    0.0000 C.3     1  UNL1        0.0033
     24 C          20.9067   -0.2866    0.0000 C.3     1  UNL1        0.1149
     25 C          22.7197   -0.0983    0.0000 C.3     1  UNL1        0.1347
     26 C          19.1384    1.7271    0.0000 C.3     1  UNL1       -0.0053
     27 C          20.0426    0.2168    0.0000 C.3     1  UNL1       -0.0086
     28 C          22.7259    1.5112    0.0000 C.3     1  UNL1       -0.0175
     29 C          23.3064    0.7042    0.0000 C.3     1  UNL1       -0.0136
     30 C          20.9345    2.7549    0.0000 C.3     1  UNL1       -0.0025
     31 C          21.7708   -0.7899    0.0000 C.3     1  UNL1       -0.0503
     32 C          19.1344    2.7687    0.0000 C.2     1  UNL1       -0.0647
     33 C          18.2094    1.1666    0.0000 C.3     1  UNL1       -0.0412
     34 C          20.0385    3.2861    0.0000 C.2     1  UNL1       -0.0813
     35 C          19.1423    0.7271    0.0000 C.3     1  UNL1       -0.0555
     36 C          23.5274   -0.6878    0.0000 C.2     1  UNL1        0.1623
     37 C          18.2011    3.3221    0.0000 C.3     1  UNL1       -0.0047
     38 C          17.2635    1.6982    0.0000 C.3     1  UNL1       -0.0254
     39 C          17.2594    2.7832    0.0000 C.3     1  UNL1        0.0654
     40 C          24.4418   -0.2830    0.0000 C.3     1  UNL1       -0.0031
     41 C          20.0349   -1.7832    0.0000 C.2     1  UNL1        0.3395
     42 C          15.5273    2.7832    0.0000 C.3     1  UNL1        0.1624
     43 C          20.0310   -2.7832    0.0000 C.ar    1  UNL1        0.0590
     44 C          15.5273    1.7832    0.0000 C.3     1  UNL1        0.0272
     45 C          14.6613    1.2832    0.0000 C.3     1  UNL1        0.0915
     46 C          19.1631   -3.2799    0.0000 C.ar    1  UNL1       -0.0478
     47 C          20.8951   -3.2865    0.0000 C.ar    1  UNL1       -0.0478
     48 C          13.7953    2.7832    0.0000 C.3     1  UNL1        0.0875
     49 C          13.7953    1.7832    0.0000 C.3     1  UNL1        0.1137
     50 C          19.1592   -4.2799    0.0000 C.ar    1  UNL1       -0.0610
     51 C          20.8913   -4.2865    0.0000 C.ar    1  UNL1       -0.0610
     52 C          12.9292    3.2832    0.0000 C.3     1  UNL1       -0.0361
     53 C          20.0233   -4.7832    0.0000 C.ar    1  UNL1       -0.0617
     54 C          12.0632    1.7832    0.0000 C.3     1  UNL1        0.1626
     55 C          15.5273   -0.2168    0.0000 C.3     1  UNL1        0.0369
     56 C          11.1972    1.2832    0.0000 C.3     1  UNL1        0.0272
     57 C          10.3312    1.7832    0.0000 C.3     1  UNL1        0.0915
     58 C          11.1972    3.2832    0.0000 C.3     1  UNL1        0.0875
     59 C          10.3312    2.7832    0.0000 C.3     1  UNL1        0.1137
     60 C          11.1972    4.2832    0.0000 C.3     1  UNL1       -0.0361
     61 C           8.5991    2.7832    0.0000 C.3     1  UNL1        0.1626
     62 C           9.4651    0.2832    0.0000 C.3     1  UNL1        0.0369
     63 C           8.5991    1.7832    0.0000 C.3     1  UNL1        0.0272
     64 C           7.7331    1.2832    0.0000 C.3     1  UNL1        0.0915
     65 C           6.8671    1.7832    0.0000 C.3     1  UNL1        0.1137
     66 C           6.8671    2.7832    0.0000 C.3     1  UNL1        0.0875
     67 C           6.0010    3.2832    0.0000 C.3     1  UNL1       -0.0361
     68 C           5.1350    1.7832    0.0000 C.3     1  UNL1        0.1626
     69 C           5.1350    2.7832    0.0000 C.3     1  UNL1        0.0272
     70 C           4.2690    3.2832    0.0000 C.3     1  UNL1        0.0911
     71 C           3.4030    2.7832    0.0000 C.3     1  UNL1        0.1073
     72 C           3.4030    1.7832    0.0000 C.3     1  UNL1        0.0871
     73 C           6.8671   -0.2168    0.0000 C.3     1  UNL1        0.0369
     74 C           2.5369    1.2832    0.0000 C.3     1  UNL1       -0.0361
     75 C           3.4030    4.7832    0.0000 C.3     1  UNL1        0.0369
     76 H          20.7809    0.7889    0.0000 H       1  UNL1        0.0339
     77 H          20.3685   -0.5945    0.0000 H       1  UNL1        0.0741
     78 H          19.4324    0.3268    0.0000 H       1  UNL1        0.0305
     79 H          19.8283   -0.3650    0.0000 H       1  UNL1        0.0305
     80 H          23.2644    1.8183    0.0000 H       1  UNL1        0.0295
     81 H          22.4770    2.0790    0.0000 H       1  UNL1        0.0295
     82 H          23.7656    0.2877    0.0000 H       1  UNL1        0.0298
     83 H          23.7688    1.1171    0.0000 H       1  UNL1        0.0298
     84 H          21.5432    2.6370    0.0000 H       1  UNL1        0.0336
     85 H          21.1547    3.3344    0.0000 H       1  UNL1        0.0336
     86 H          21.1508   -0.7875    0.0000 H       1  UNL1        0.0238
     87 H          21.7684   -1.4099    0.0000 H       1  UNL1        0.0238
     88 H          22.3908   -0.7923    0.0000 H       1  UNL1        0.0238
     89 H          17.8176    0.6861    0.0000 H       1  UNL1        0.0274
     90 H          18.6158    0.6984    0.0000 H       1  UNL1        0.0274
     91 H          20.0432    3.9060    0.0000 H       1  UNL1        0.0573
     92 H          22.7351    2.2538    0.0000 H       1  UNL1        0.2103
     93 H          18.5223    0.7247    0.0000 H       1  UNL1        0.0238
     94 H          19.1446    0.1071    0.0000 H       1  UNL1        0.0238
     95 H          19.7622    0.7295    0.0000 H       1  UNL1        0.0238
     96 H          21.6701    3.0871    0.0000 H       1  UNL1        0.2103
     97 H          18.6039    3.7934    0.0000 H       1  UNL1        0.0335
     98 H          17.8056    3.7996    0.0000 H       1  UNL1        0.0335
     99 H          16.6523    1.8019    0.0000 H       1  UNL1        0.0290
    100 H          17.0567    1.1137    0.0000 H       1  UNL1        0.0290
    101 H          16.7230    2.4722    0.0000 H       1  UNL1        0.0600
    102 H          22.8225   -1.5103    0.0000 H       1  UNL1        0.2108
    103 H          24.6928   -0.8499    0.0000 H       1  UNL1        0.0307
    104 H          25.0088   -0.0320    0.0000 H       1  UNL1        0.0307
    105 H          24.1909    0.2839    0.0000 H       1  UNL1        0.0307
    106 H          15.5273    3.4032    0.0000 H       1  UNL1        0.0910
    107 H          15.7394    1.2006    0.0000 H       1  UNL1        0.0340
    108 H          16.1379    1.8908    0.0000 H       1  UNL1        0.0340
    109 H          14.1244    0.9732    0.0000 H       1  UNL1        0.0624
    110 H          18.6273   -2.9678    0.0000 H       1  UNL1        0.0626
    111 H          21.4332   -2.9786    0.0000 H       1  UNL1        0.0626
    112 H          13.7953    3.4032    0.0000 H       1  UNL1        0.0621
    113 H          13.2583    2.0932    0.0000 H       1  UNL1        0.0649
    114 H          18.6211   -4.5878    0.0000 H       1  UNL1        0.0618
    115 H          21.4270   -4.5986    0.0000 H       1  UNL1        0.0618
    116 H          13.2392    3.8201    0.0000 H       1  UNL1        0.0255
    117 H          12.3923    3.5932    0.0000 H       1  UNL1        0.0255
    118 H          12.6192    2.7463    0.0000 H       1  UNL1        0.0255
    119 H          20.0209   -5.4032    0.0000 H       1  UNL1        0.0618
    120 H          12.0632    1.1632    0.0000 H       1  UNL1        0.0910
    121 H          15.2173   -0.7537    0.0000 H       1  UNL1        0.0524
    122 H          16.0643   -0.5268    0.0000 H       1  UNL1        0.0524
    123 H          15.8373    0.3201    0.0000 H       1  UNL1        0.0524
    124 H          10.7987    0.8082    0.0000 H       1  UNL1        0.0340
    125 H          11.5957    0.8082    0.0000 H       1  UNL1        0.0340
    126 H           9.7942    2.0932    0.0000 H       1  UNL1        0.0624
    127 H          11.7341    3.5932    0.0000 H       1  UNL1        0.0621
    128 H          10.3312    3.4032    0.0000 H       1  UNL1        0.0649
    129 H          11.8172    4.2832    0.0000 H       1  UNL1        0.0255
    130 H          11.1972    4.9032    0.0000 H       1  UNL1        0.0255
    131 H          10.5772    4.2832    0.0000 H       1  UNL1        0.0255
    132 H           8.5991    3.4032    0.0000 H       1  UNL1        0.0910
    133 H           8.8451    0.2832    0.0000 H       1  UNL1        0.0524
    134 H           9.4651   -0.3368    0.0000 H       1  UNL1        0.0524
    135 H          10.0851    0.2832    0.0000 H       1  UNL1        0.0524
    136 H           8.8112    1.2006    0.0000 H       1  UNL1        0.0340
    137 H           9.2097    1.8908    0.0000 H       1  UNL1        0.0340
    138 H           8.2700    0.9732    0.0000 H       1  UNL1        0.0624
    139 H           6.3301    2.0932    0.0000 H       1  UNL1        0.0649
    140 H           6.8671    3.4032    0.0000 H       1  UNL1        0.0621
    141 H           6.3110    3.8201    0.0000 H       1  UNL1        0.0255
    142 H           5.4641    3.5932    0.0000 H       1  UNL1        0.0255
    143 H           5.6910    2.7463    0.0000 H       1  UNL1        0.0255
    144 H           5.1350    1.1632    0.0000 H       1  UNL1        0.0910
    145 H           5.7456    2.6755    0.0000 H       1  UNL1        0.0340
    146 H           5.3471    3.3658    0.0000 H       1  UNL1        0.0340
    147 H           4.8059    3.5932    0.0000 H       1  UNL1        0.0624
    148 H           3.4030    3.4032    0.0000 H       1  UNL1        0.0645
    149 H           3.4030    1.1632    0.0000 H       1  UNL1        0.0621
    150 H           6.5571    0.3201    0.0000 H       1  UNL1        0.0524
    151 H           6.3301   -0.5268    0.0000 H       1  UNL1        0.0524
    152 H           7.1771   -0.7537    0.0000 H       1  UNL1        0.0524
    153 H           2.2269    1.8201    0.0000 H       1  UNL1        0.0255
    154 H           2.0000    0.9732    0.0000 H       1  UNL1        0.0255
    155 H           2.8469    0.7463    0.0000 H       1  UNL1        0.0255
    156 H           2.0000    2.9732    0.0000 H       1  UNL1        0.2100
    157 H           3.7130    5.3201    0.0000 H       1  UNL1        0.0524
    158 H           2.8660    5.0932    0.0000 H       1  UNL1        0.0524
    159 H           3.0930    4.2463    0.0000 H       1  UNL1        0.0524
@<TRIPOS>BOND
     1    20     1    1
     2     1    92    1
     3    22     2    1
     4     2    96    1
     5    24     3    1
     6     3    41    1
     7    25     4    1
     8     4   102    1
     9    39     5    1
    10    42     5    1
    11     6    36    2
    12     7    41    2
    13     8    42    1
    14     8    48    1
    15    45     9    1
    16     9    55    1
    17    49    10    1
    18    54    10    1
    19    11    54    1
    20    11    58    1
    21    57    12    1
    22    12    62    1
    23    59    13    1
    24    61    13    1
    25    14    61    1
    26    14    66    1
    27    65    15    1
    28    68    15    1
    29    64    16    1
    30    16    73    1
    31    17    68    1
    32    17    72    1
    33    70    18    1
    34    18    75    1
    35    71    19    1
    36    19   156    1
    37    20    21    1
    38    20    22    1
    39    20    28    1
    40    21    24    1
    41    21    25    1
    42    21    31    1
    43    22    23    1
    44    22    30    1
    45    23    26    1
    46    23    27    1
    47    23    76    1
    48    24    27    1
    49    24    77    1
    50    25    29    1
    51    25    36    1
    52    26    32    1
    53    26    33    1
    54    26    35    1
    55    27    78    1
    56    27    79    1
    57    28    29    1
    58    28    80    1
    59    28    81    1
    60    29    82    1
    61    29    83    1
    62    30    34    1
    63    30    84    1
    64    30    85    1
    65    31    86    1
    66    31    87    1
    67    31    88    1
    68    32    34    2
    69    32    37    1
    70    33    38    1
    71    33    89    1
    72    33    90    1
    73    34    91    1
    74    35    93    1
    75    35    94    1
    76    35    95    1
    77    36    40    1
    78    37    39    1
    79    37    97    1
    80    37    98    1
    81    38    39    1
    82    38    99    1
    83    38   100    1
    84    39   101    1
    85    40   103    1
    86    40   104    1
    87    40   105    1
    88    41    43    1
    89    42    44    1
    90    42   106    1
    91    43    46   ar
    92    43    47   ar
    93    44    45    1
    94    44   107    1
    95    44   108    1
    96    45    49    1
    97    45   109    1
    98    46    50   ar
    99    46   110    1
   100    47    51   ar
   101    47   111    1
   102    48    49    1
   103    48    52    1
   104    48   112    1
   105    49   113    1
   106    50    53   ar
   107    50   114    1
   108    51    53   ar
   109    51   115    1
   110    52   116    1
   111    52   117    1
   112    52   118    1
   113    53   119    1
   114    54    56    1
   115    54   120    1
   116    55   121    1
   117    55   122    1
   118    55   123    1
   119    56    57    1
   120    56   124    1
   121    56   125    1
   122    57    59    1
   123    57   126    1
   124    58    59    1
   125    58    60    1
   126    58   127    1
   127    59   128    1
   128    60   129    1
   129    60   130    1
   130    60   131    1
   131    61    63    1
   132    61   132    1
   133    62   133    1
   134    62   134    1
   135    62   135    1
   136    63    64    1
   137    63   136    1
   138    63   137    1
   139    64    65    1
   140    64   138    1
   141    65    66    1
   142    65   139    1
   143    66    67    1
   144    66   140    1
   145    67   141    1
   146    67   142    1
   147    67   143    1
   148    68    69    1
   149    68   144    1
   150    69    70    1
   151    69   145    1
   152    69   146    1
   153    70    71    1
   154    70   147    1
   155    71    72    1
   156    71   148    1
   157    72    74    1
   158    72   149    1
   159    73   150    1
   160    73   151    1
   161    73   152    1
   162    74   153    1
   163    74   154    1
   164    74   155    1
   165    75   157    1
   166    75   158    1
   167    75   159    1
