@<TRIPOS>MOLECULE
IMPHY001949
 76 81 0 0 0
SMALL
GASTEIGER

@<TRIPOS>ATOM
      1 O          11.0147   -1.9055    0.0000 O.3     1  UNL1       -0.3653
      2 O           8.7823   -1.0236    0.0000 O.2     1  UNL1       -0.2943
      3 O          12.6479    1.7168    0.0000 O.2     1  UNL1       -0.2971
      4 O           6.0010    2.5395    0.0000 O.3     1  UNL1       -0.3452
      5 O           6.0091    0.4478    0.0000 O.3     1  UNL1       -0.3892
      6 O           4.2690    2.5395    0.0000 O.3     1  UNL1       -0.3456
      7 O           4.2690   -0.4605    0.0000 O.3     1  UNL1       -0.3770
      8 O           2.5369    0.5395    0.0000 O.3     1  UNL1       -0.3867
      9 C          11.3823   -0.5336    0.0000 C.3     1  UNL1        0.0164
     10 C          11.3862    0.4664    0.0000 C.3     1  UNL1        0.0298
     11 C          12.3274   -0.8420    0.0000 C.3     1  UNL1        0.0005
     12 C          10.5221    0.9697    0.0000 C.3     1  UNL1       -0.0171
     13 C           9.6541    0.4730    0.0000 C.3     1  UNL1        0.0330
     14 C          10.5144   -1.0303    0.0000 C.3     1  UNL1        0.1234
     15 C           8.7461    0.9834    0.0000 C.3     1  UNL1        0.0013
     16 C          12.9141   -0.0395    0.0000 C.3     1  UNL1        0.0119
     17 C          12.0175   -1.8014    0.0000 C.3     1  UNL1        0.0606
     18 C           9.6503   -0.5270    0.0000 C.2     1  UNL1        0.1665
     19 C          12.3336    0.7674    0.0000 C.2     1  UNL1        0.1377
     20 C          10.5422    2.0111    0.0000 C.3     1  UNL1       -0.0303
     21 C          12.2503   -0.0370    0.0000 C.3     1  UNL1       -0.0558
     22 C           8.7421    2.0250    0.0000 C.2     1  UNL1       -0.0643
     23 C           7.8171    0.4229    0.0000 C.3     1  UNL1       -0.0146
     24 C           9.6462    2.5424    0.0000 C.2     1  UNL1       -0.0838
     25 C           8.7500   -0.0166    0.0000 C.3     1  UNL1       -0.0551
     26 C           7.8088    2.5783    0.0000 C.3     1  UNL1       -0.0023
     27 C           6.8712    0.9545    0.0000 C.3     1  UNL1        0.0825
     28 C          12.6470   -2.5783    0.0000 C.3     1  UNL1       -0.0384
     29 C           6.8671    2.0395    0.0000 C.3     1  UNL1        0.0912
     30 C           5.1350    2.0395    0.0000 C.3     1  UNL1        0.1625
     31 C           5.1350    1.0395    0.0000 C.3     1  UNL1        0.0272
     32 C           4.2690    0.5395    0.0000 C.3     1  UNL1        0.0911
     33 C           3.4030    2.0395    0.0000 C.3     1  UNL1        0.0871
     34 C           3.4030    1.0395    0.0000 C.3     1  UNL1        0.1073
     35 C           2.5369    2.5395    0.0000 C.3     1  UNL1       -0.0361
     36 C           3.4030   -0.9605    0.0000 C.3     1  UNL1        0.0369
     37 H          11.4794    1.3112    0.0000 H       1  UNL1        0.0387
     38 H          11.2631    1.3862    0.0000 H       1  UNL1        0.0318
     39 H          12.8796   -1.1238    0.0000 H       1  UNL1        0.0336
     40 H          10.1899    0.1610    0.0000 H       1  UNL1        0.0390
     41 H           9.9109   -1.6289    0.0000 H       1  UNL1        0.0681
     42 H          13.3733   -0.4560    0.0000 H       1  UNL1        0.0345
     43 H          13.3765    0.3734    0.0000 H       1  UNL1        0.0345
     44 H          11.7800   -2.3740    0.0000 H       1  UNL1        0.0596
     45 H          11.1509    1.8933    0.0000 H       1  UNL1        0.0310
     46 H          10.7624    2.5907    0.0000 H       1  UNL1        0.0310
     47 H          12.5582   -0.5751    0.0000 H       1  UNL1        0.0236
     48 H          12.7884    0.2710    0.0000 H       1  UNL1        0.0236
     49 H          11.9423    0.5012    0.0000 H       1  UNL1        0.0236
     50 H           7.4253   -0.0576    0.0000 H       1  UNL1        0.0299
     51 H           8.2235   -0.0453    0.0000 H       1  UNL1        0.0299
     52 H           9.6509    3.1623    0.0000 H       1  UNL1        0.0572
     53 H           8.1299   -0.0190    0.0000 H       1  UNL1        0.0238
     54 H           8.7523   -0.6366    0.0000 H       1  UNL1        0.0238
     55 H           9.3699   -0.0142    0.0000 H       1  UNL1        0.0238
     56 H           8.2116    3.0497    0.0000 H       1  UNL1        0.0336
     57 H           7.4133    3.0558    0.0000 H       1  UNL1        0.0336
     58 H           6.3325    1.2614    0.0000 H       1  UNL1        0.0619
     59 H          12.1653   -2.9686    0.0000 H       1  UNL1        0.0255
     60 H          13.0373   -3.0601    0.0000 H       1  UNL1        0.0255
     61 H          13.1287   -2.1880    0.0000 H       1  UNL1        0.0255
     62 H           6.8683    2.6595    0.0000 H       1  UNL1        0.0626
     63 H           6.0139   -0.1722    0.0000 H       1  UNL1        0.2099
     64 H           5.1350    2.6595    0.0000 H       1  UNL1        0.0910
     65 H           5.3471    0.4569    0.0000 H       1  UNL1        0.0340
     66 H           5.7456    1.1471    0.0000 H       1  UNL1        0.0340
     67 H           4.8059    0.2295    0.0000 H       1  UNL1        0.0624
     68 H           3.4030    2.6595    0.0000 H       1  UNL1        0.0621
     69 H           3.4030    0.4195    0.0000 H       1  UNL1        0.0645
     70 H           2.8469    3.0764    0.0000 H       1  UNL1        0.0255
     71 H           2.0000    2.8495    0.0000 H       1  UNL1        0.0255
     72 H           2.2269    2.0025    0.0000 H       1  UNL1        0.0255
     73 H           2.0000    0.8495    0.0000 H       1  UNL1        0.2100
     74 H           3.0930   -0.4236    0.0000 H       1  UNL1        0.0524
     75 H           2.8660   -1.2705    0.0000 H       1  UNL1        0.0524
     76 H           3.7130   -1.4975    0.0000 H       1  UNL1        0.0524
@<TRIPOS>BOND
     1     1    14    1
     2     1    17    1
     3     2    18    2
     4     3    19    2
     5    29     4    1
     6    30     4    1
     7    27     5    1
     8     5    63    1
     9     6    30    1
    10     6    33    1
    11    32     7    1
    12     7    36    1
    13    34     8    1
    14     8    73    1
    15     9    10    1
    16     9    11    1
    17     9    14    1
    18     9    21    1
    19    10    12    1
    20    10    19    1
    21    10    37    1
    22    11    16    1
    23    11    17    1
    24    11    39    1
    25    12    13    1
    26    12    20    1
    27    12    38    1
    28    13    15    1
    29    13    18    1
    30    13    40    1
    31    14    18    1
    32    14    41    1
    33    15    22    1
    34    15    23    1
    35    15    25    1
    36    16    19    1
    37    16    42    1
    38    16    43    1
    39    17    28    1
    40    17    44    1
    41    20    24    1
    42    20    45    1
    43    20    46    1
    44    21    47    1
    45    21    48    1
    46    21    49    1
    47    22    24    2
    48    22    26    1
    49    23    27    1
    50    23    50    1
    51    23    51    1
    52    24    52    1
    53    25    53    1
    54    25    54    1
    55    25    55    1
    56    26    29    1
    57    26    56    1
    58    26    57    1
    59    27    29    1
    60    27    58    1
    61    28    59    1
    62    28    60    1
    63    28    61    1
    64    29    62    1
    65    30    31    1
    66    30    64    1
    67    31    32    1
    68    31    65    1
    69    31    66    1
    70    32    34    1
    71    32    67    1
    72    33    34    1
    73    33    35    1
    74    33    68    1
    75    34    69    1
    76    35    70    1
    77    35    71    1
    78    35    72    1
    79    36    74    1
    80    36    75    1
    81    36    76    1
