@<TRIPOS>MOLECULE
IMPHY009010
 59 63 0 0 0
SMALL
GASTEIGER

@<TRIPOS>ATOM
      1 O           2.8304    1.0898    0.0000 O.3     1  UNL1       -0.4606
      2 O           7.2580    0.7637    0.0000 O.3     1  UNL1       -0.3479
      3 O           4.5797    3.0684    0.0000 O.3     1  UNL1       -0.3870
      4 O           7.2580    2.3732    0.0000 O.3     1  UNL1       -0.3479
      5 O           7.2700   -0.4771    0.0000 O.2     1  UNL1       -0.2882
      6 O           2.0000    2.5982    0.0000 O.2     1  UNL1       -0.2507
      7 O           7.3022   -2.5685    0.0000 O.2     1  UNL1       -0.4919
      8 C           4.5797    1.0684    0.0000 C.3     1  UNL1        0.0407
      9 C           5.4457    0.5684    0.0000 C.3     1  UNL1        0.0120
     10 C           5.4618   -0.4731    0.0000 C.3     1  UNL1        0.0432
     11 C           4.5797    2.0684    0.0000 C.3     1  UNL1        0.0902
     12 C           3.6697    0.5616    0.0000 C.3     1  UNL1        0.1117
     13 C           6.3118    1.0684    0.0000 C.3     1  UNL1        0.0923
     14 C           4.5638   -1.0008    0.0000 C.3     1  UNL1       -0.0186
     15 C           5.4457    2.5684    0.0000 C.3     1  UNL1        0.0150
     16 C           6.3118    2.0684    0.0000 C.3     1  UNL1        0.0930
     17 C           3.6617   -0.4800    0.0000 C.3     1  UNL1       -0.0108
     18 C           4.5797    0.0684    0.0000 C.3     1  UNL1       -0.0531
     19 C           3.7215    2.5654    0.0000 C.3     1  UNL1        0.0747
     20 C           4.5554   -2.0858    0.0000 C.3     1  UNL1       -0.0181
     21 C           6.3239    0.0336    0.0000 C.3     1  UNL1       -0.0517
     22 C           6.4137   -0.9937    0.0000 C.2     1  UNL1        0.2034
     23 C           5.4457    3.5684    0.0000 C.3     1  UNL1       -0.0573
     24 C           2.8560    2.0812    0.0000 C.2     1  UNL1        0.3102
     25 C           7.8416    1.5684    0.0000 C.3     1  UNL1        0.1491
     26 C           5.4950   -2.6283    0.0000 C.2     1  UNL1       -0.0356
     27 C           6.4305   -2.0786    0.0000 C.2     1  UNL1        0.1592
     28 C           3.6874   -2.5824    0.0000 C.3     1  UNL1       -0.0585
     29 C           7.3138   -3.5684    0.0000 C.3     1  UNL1        0.0789
     30 H           6.1851    0.1491    0.0000 H       1  UNL1        0.0344
     31 H           2.9240    0.1536    0.0000 H       1  UNL1        0.0740
     32 H           6.4017    0.2232    0.0000 H       1  UNL1        0.0626
     33 H           3.8260   -1.4230    0.0000 H       1  UNL1        0.0317
     34 H           5.9827    2.8784    0.0000 H       1  UNL1        0.0352
     35 H           6.4017    2.9137    0.0000 H       1  UNL1        0.0626
     36 H           3.0517   -0.3692    0.0000 H       1  UNL1        0.0304
     37 H           3.4481   -1.0621    0.0000 H       1  UNL1        0.0304
     38 H           3.9597    0.0684    0.0000 H       1  UNL1        0.0237
     39 H           4.5797   -0.5516    0.0000 H       1  UNL1        0.0237
     40 H           5.1997    0.0684    0.0000 H       1  UNL1        0.0237
     41 H           4.1226    3.0382    0.0000 H       1  UNL1        0.0406
     42 H           3.3275    3.0441    0.0000 H       1  UNL1        0.0406
     43 H           4.0203   -1.7727    0.0000 H       1  UNL1        0.0344
     44 H           6.6381   -0.5009    0.0000 H       1  UNL1        0.0239
     45 H           6.8585    0.3477    0.0000 H       1  UNL1        0.0239
     46 H           6.0098    0.5681    0.0000 H       1  UNL1        0.0239
     47 H           6.0657    3.5684    0.0000 H       1  UNL1        0.0234
     48 H           5.4457    4.1884    0.0000 H       1  UNL1        0.0234
     49 H           4.8257    3.5684    0.0000 H       1  UNL1        0.0234
     50 H           4.0428    3.3784    0.0000 H       1  UNL1        0.2102
     51 H           8.3025    1.1537    0.0000 H       1  UNL1        0.0871
     52 H           8.3025    1.9832    0.0000 H       1  UNL1        0.0871
     53 H           5.4974   -3.2483    0.0000 H       1  UNL1        0.0612
     54 H           3.3795   -2.0443    0.0000 H       1  UNL1        0.0235
     55 H           3.1493   -2.8904    0.0000 H       1  UNL1        0.0235
     56 H           3.9954   -3.1206    0.0000 H       1  UNL1        0.0235
     57 H           6.6938   -3.5756    0.0000 H       1  UNL1        0.0660
     58 H           7.3209   -4.1884    0.0000 H       1  UNL1        0.0660
     59 H           7.9337   -3.5613    0.0000 H       1  UNL1        0.0660
@<TRIPOS>BOND
     1     1    12    1
     2     1    24    1
     3     2    13    1
     4     2    25    1
     5    11     3    1
     6     3    50    1
     7     4    16    1
     8     4    25    1
     9     5    22    2
    10     6    24    2
    11     7    27    1
    12     7    29    1
    13     8     9    1
    14     8    11    1
    15     8    12    1
    16     8    18    1
    17     9    10    1
    18     9    13    1
    19     9    30    1
    20    10    14    1
    21    10    21    1
    22    10    22    1
    23    11    15    1
    24    11    19    1
    25    12    17    1
    26    12    31    1
    27    13    16    1
    28    13    32    1
    29    14    17    1
    30    14    20    1
    31    14    33    1
    32    15    16    1
    33    15    23    1
    34    15    34    1
    35    16    35    1
    36    17    36    1
    37    17    37    1
    38    18    38    1
    39    18    39    1
    40    18    40    1
    41    19    24    1
    42    19    41    1
    43    19    42    1
    44    20    26    1
    45    20    28    1
    46    20    43    1
    47    21    44    1
    48    21    45    1
    49    21    46    1
    50    22    27    1
    51    23    47    1
    52    23    48    1
    53    23    49    1
    54    25    51    1
    55    25    52    1
    56    26    27    2
    57    26    53    1
    58    28    54    1
    59    28    55    1
    60    28    56    1
    61    29    57    1
    62    29    58    1
    63    29    59    1
