@<TRIPOS>MOLECULE
IMPHY006212
 39 40 0 0 0
SMALL
GASTEIGER

@<TRIPOS>ATOM
      1 O           2.0000    2.6900    0.0000 O.3     1  UNL1       -0.4774
      2 O           3.7320    2.6900    0.0000 O.2     1  UNL1       -0.2455
      3 C           4.5981   -1.8100    0.0000 C.3     1  UNL1       -0.0162
      4 C           3.7320   -2.3100    0.0000 C.3     1  UNL1       -0.0373
      5 C           4.5981   -0.8100    0.0000 C.2     1  UNL1       -0.0604
      6 C           3.7320   -0.3100    0.0000 C.3     1  UNL1       -0.0006
      7 C           5.5443   -2.1147    0.0000 C.3     1  UNL1       -0.0426
      8 C           2.8660   -1.8100    0.0000 C.3     1  UNL1       -0.0491
      9 C           2.8660   -0.8100    0.0000 C.3     1  UNL1       -0.0427
     10 C           6.1279   -1.3100    0.0000 C.3     1  UNL1       -0.0312
     11 C           5.5443   -0.5053    0.0000 C.2     1  UNL1       -0.0725
     12 C           3.7320   -3.3100    0.0000 C.3     1  UNL1       -0.0619
     13 C           3.7320    0.6900    0.0000 C.2     1  UNL1       -0.0672
     14 C           5.8550    0.4453    0.0000 C.3     1  UNL1       -0.0435
     15 C           2.8660    1.1900    0.0000 C.2     1  UNL1        0.0300
     16 C           2.0000    0.6900    0.0000 C.3     1  UNL1       -0.0332
     17 C           2.8660    2.1900    0.0000 C.2     1  UNL1        0.3322
     18 H           4.6880   -2.6552    0.0000 H       1  UNL1        0.0349
     19 H           4.2690   -2.6200    0.0000 H       1  UNL1        0.0304
     20 H           4.2690    0.0000    0.0000 H       1  UNL1        0.0388
     21 H           5.2933   -2.6816    0.0000 H       1  UNL1        0.0274
     22 H           6.0817   -2.4240    0.0000 H       1  UNL1        0.0274
     23 H           2.2554   -1.7023    0.0000 H       1  UNL1        0.0268
     24 H           2.6540   -2.3926    0.0000 H       1  UNL1        0.0268
     25 H           2.6540   -0.2274    0.0000 H       1  UNL1        0.0274
     26 H           2.2554   -0.9177    0.0000 H       1  UNL1        0.0274
     27 H           6.5888   -1.7247    0.0000 H       1  UNL1        0.0310
     28 H           6.5888   -0.8953    0.0000 H       1  UNL1        0.0310
     29 H           3.1120   -3.3100    0.0000 H       1  UNL1        0.0233
     30 H           3.7320   -3.9300    0.0000 H       1  UNL1        0.0233
     31 H           4.3520   -3.3100    0.0000 H       1  UNL1        0.0233
     32 H           4.2690    1.0000    0.0000 H       1  UNL1        0.0583
     33 H           6.4443    0.2526    0.0000 H       1  UNL1        0.0274
     34 H           6.0476    1.0346    0.0000 H       1  UNL1        0.0274
     35 H           5.2656    0.6379    0.0000 H       1  UNL1        0.0274
     36 H           1.6900    1.2269    0.0000 H       1  UNL1        0.0280
     37 H           1.4631    0.3800    0.0000 H       1  UNL1        0.0280
     38 H           2.3100    0.1531    0.0000 H       1  UNL1        0.0280
     39 H           2.0000    3.3100    0.0000 H       1  UNL1        0.2954
@<TRIPOS>BOND
     1     1    17    1
     2     1    39    1
     3     2    17    2
     4     3     4    1
     5     3     5    1
     6     3     7    1
     7     3    18    1
     8     4     8    1
     9     4    12    1
    10     4    19    1
    11     5     6    1
    12     5    11    2
    13     6     9    1
    14     6    13    1
    15     6    20    1
    16     7    10    1
    17     7    21    1
    18     7    22    1
    19     8     9    1
    20     8    23    1
    21     8    24    1
    22     9    25    1
    23     9    26    1
    24    10    11    1
    25    10    27    1
    26    10    28    1
    27    11    14    1
    28    12    29    1
    29    12    30    1
    30    12    31    1
    31    13    15    2
    32    13    32    1
    33    14    33    1
    34    14    34    1
    35    14    35    1
    36    15    16    1
    37    15    17    1
    38    16    36    1
    39    16    37    1
    40    16    38    1
