@<TRIPOS>MOLECULE
IMPHY009729
 24 25 0 0 0
SMALL
GASTEIGER

@<TRIPOS>ATOM
      1 C           5.4490   -0.0329    0.0000 C.3     1  UNL1       -0.0218
      2 C           4.0501   -0.0417    0.0000 C.3     1  UNL1       -0.0102
      3 C           4.3089    0.9242    0.0000 C.3     1  UNL1       -0.0163
      4 C           3.5723    1.9068    0.0000 C.3     1  UNL1       -0.0389
      5 C           2.8290   -0.9074    0.0000 C.2     1  UNL1       -0.0511
      6 C           5.9490   -0.8990    0.0000 C.3     1  UNL1       -0.0587
      7 C           6.3150    0.4671    0.0000 C.3     1  UNL1       -0.0587
      8 C           2.2756    0.6130    0.0000 C.2     1  UNL1       -0.0801
      9 C           2.0000   -0.3482    0.0000 C.2     1  UNL1       -0.0625
     10 C           2.8639   -1.9068    0.0000 C.2     1  UNL1       -0.0952
     11 H           4.2401   -0.6319    0.0000 H       1  UNL1        0.0354
     12 H           4.7592    1.3504    0.0000 H       1  UNL1        0.0349
     13 H           3.8901    2.4392    0.0000 H       1  UNL1        0.0277
     14 H           2.9591    1.9988    0.0000 H       1  UNL1        0.0277
     15 H           6.6250   -0.0699    0.0000 H       1  UNL1        0.0235
     16 H           6.8520    0.7771    0.0000 H       1  UNL1        0.0235
     17 H           5.4121   -1.2090    0.0000 H       1  UNL1        0.0235
     18 H           6.2590   -1.4359    0.0000 H       1  UNL1        0.0235
     19 H           6.4859   -0.5890    0.0000 H       1  UNL1        0.0235
     20 H           6.0050    1.0040    0.0000 H       1  UNL1        0.0235
     21 H           1.8660    1.0785    0.0000 H       1  UNL1        0.0575
     22 H           1.4174   -0.5603    0.0000 H       1  UNL1        0.0617
     23 H           2.3382   -2.2354    0.0000 H       1  UNL1        0.0538
     24 H           3.4114   -2.1979    0.0000 H       1  UNL1        0.0538
@<TRIPOS>BOND
     1     1     2    1
     2     1     3    1
     3     1     6    1
     4     1     7    1
     5     2     4    1
     6     2     5    1
     7     2    11    1
     8     3     4    1
     9     3     8    1
    10     3    12    1
    11     4    13    1
    12     4    14    1
    13     5     9    1
    14     5    10    2
    15     6    17    1
    16     6    18    1
    17     6    19    1
    18     7    15    1
    19     7    16    1
    20     7    20    1
    21     8     9    2
    22     8    21    1
    23     9    22    1
    24    10    23    1
    25    10    24    1
