@<TRIPOS>MOLECULE
IMPHY016889
 38 39 0 0 0
SMALL
GASTEIGER

@<TRIPOS>ATOM
      1 O           7.4226    1.4284    0.0000 O.2     1  UNL1       -0.2960
      2 C           4.0835   -1.7134    0.0000 C.3     1  UNL1       -0.0310
      3 C           4.4245   -0.7645    0.0000 C.3     1  UNL1       -0.0290
      4 C           3.4848   -0.4225    0.0000 C.3     1  UNL1       -0.0163
      5 C           3.1361   -1.3685    0.0000 C.3     1  UNL1       -0.0408
      6 C           5.3642   -0.4225    0.0000 C.3     1  UNL1       -0.0451
      7 C           3.7434   -2.6538    0.0000 C.3     1  UNL1       -0.0595
      8 C           5.0239   -2.0535    0.0000 C.3     1  UNL1       -0.0595
      9 C           2.9848    0.4436    0.0000 C.2     1  UNL1       -0.0729
     10 C           5.8642    0.4436    0.0000 C.3     1  UNL1       -0.0247
     11 C           3.1585    1.4284    0.0000 C.3     1  UNL1       -0.0283
     12 C           3.9245    2.0712    0.0000 C.3     1  UNL1       -0.0304
     13 C           2.0000    0.2699    0.0000 C.2     1  UNL1       -0.0992
     14 C           5.6905    1.4284    0.0000 C.2     1  UNL1       -0.0121
     15 C           4.9245    2.0712    0.0000 C.2     1  UNL1       -0.0775
     16 C           6.5566    1.9284    0.0000 C.2     1  UNL1        0.1460
     17 H           5.0268   -1.3643    0.0000 H       1  UNL1        0.0312
     18 H           2.6379   -0.4948    0.0000 H       1  UNL1        0.0349
     19 H           2.5540   -1.1549    0.0000 H       1  UNL1        0.0276
     20 H           2.9232   -1.9508    0.0000 H       1  UNL1        0.0276
     21 H           5.4002   -1.0414    0.0000 H       1  UNL1        0.0271
     22 H           5.9675   -0.5654    0.0000 H       1  UNL1        0.0271
     23 H           3.1604   -2.4429    0.0000 H       1  UNL1        0.0235
     24 H           3.5326   -3.2368    0.0000 H       1  UNL1        0.0235
     25 H           4.3265   -2.8646    0.0000 H       1  UNL1        0.0235
     26 H           4.8131   -2.6365    0.0000 H       1  UNL1        0.0235
     27 H           5.6070   -2.2643    0.0000 H       1  UNL1        0.0235
     28 H           5.2348   -1.4704    0.0000 H       1  UNL1        0.0235
     29 H           6.2897   -0.0074    0.0000 H       1  UNL1        0.0314
     30 H           6.4182    0.7218    0.0000 H       1  UNL1        0.0314
     31 H           2.9129    1.9977    0.0000 H       1  UNL1        0.0313
     32 H           2.5426    1.3564    0.0000 H       1  UNL1        0.0313
     33 H           4.1023    2.6651    0.0000 H       1  UNL1        0.0311
     34 H           3.4065    2.4118    0.0000 H       1  UNL1        0.0311
     35 H           1.6015    0.7449    0.0000 H       1  UNL1        0.0534
     36 H           1.7880   -0.3127    0.0000 H       1  UNL1        0.0534
     37 H           5.1366    2.6538    0.0000 H       1  UNL1        0.0576
     38 H           6.5566    2.5484    0.0000 H       1  UNL1        0.1078
@<TRIPOS>BOND
     1     1    16    2
     2     2     3    1
     3     2     5    1
     4     2     7    1
     5     2     8    1
     6     3     4    1
     7     3     6    1
     8     3    17    1
     9     4     5    1
    10     4     9    1
    11     4    18    1
    12     5    19    1
    13     5    20    1
    14     6    10    1
    15     6    21    1
    16     6    22    1
    17     7    23    1
    18     7    24    1
    19     7    25    1
    20     8    26    1
    21     8    27    1
    22     8    28    1
    23     9    11    1
    24     9    13    2
    25    10    14    1
    26    10    29    1
    27    10    30    1
    28    11    12    1
    29    11    31    1
    30    11    32    1
    31    12    15    1
    32    12    33    1
    33    12    34    1
    34    13    35    1
    35    13    36    1
    36    14    15    2
    37    14    16    1
    38    15    37    1
    39    16    38    1
