@<TRIPOS>MOLECULE
IMPHY015715
 25 24 0 0 0
SMALL
GASTEIGER

@<TRIPOS>ATOM
      1 O           4.2690   -0.5950    0.0000 O.3     1  UNL1       -0.3895
      2 O           2.5369    0.4050    0.0000 O.3     1  UNL1       -0.3925
      3 C           6.0010    0.4050    0.0000 C.3     1  UNL1       -0.0507
      4 C           5.1350    0.9050    0.0000 C.3     1  UNL1       -0.0247
      5 C           6.8671    0.9050    0.0000 C.3     1  UNL1       -0.0532
      6 C           4.2690    0.4050    0.0000 C.3     1  UNL1        0.0782
      7 C           7.7331    0.4050    0.0000 C.3     1  UNL1       -0.0559
      8 C           3.4030    0.9050    0.0000 C.3     1  UNL1        0.0701
      9 C           8.5991    0.9050    0.0000 C.3     1  UNL1       -0.0653
     10 H           5.6025   -0.0699    0.0000 H       1  UNL1        0.0266
     11 H           6.3996   -0.0699    0.0000 H       1  UNL1        0.0266
     12 H           5.5335    1.3800    0.0000 H       1  UNL1        0.0291
     13 H           4.7365    1.3800    0.0000 H       1  UNL1        0.0291
     14 H           7.2656    1.3800    0.0000 H       1  UNL1        0.0265
     15 H           6.4685    1.3800    0.0000 H       1  UNL1        0.0265
     16 H           4.8059    0.0950    0.0000 H       1  UNL1        0.0616
     17 H           7.3346   -0.0699    0.0000 H       1  UNL1        0.0263
     18 H           8.1316   -0.0699    0.0000 H       1  UNL1        0.0263
     19 H           3.8015    1.3800    0.0000 H       1  UNL1        0.0583
     20 H           3.0044    1.3800    0.0000 H       1  UNL1        0.0583
     21 H           8.9091    0.3681    0.0000 H       1  UNL1        0.0230
     22 H           9.1360    1.2150    0.0000 H       1  UNL1        0.0230
     23 H           8.2891    1.4419    0.0000 H       1  UNL1        0.0230
     24 H           3.7320   -0.9050    0.0000 H       1  UNL1        0.2099
     25 H           2.0000    0.7150    0.0000 H       1  UNL1        0.2095
@<TRIPOS>BOND
     1     1     6    1
     2     1    24    1
     3     2     8    1
     4     2    25    1
     5     3     4    1
     6     3     5    1
     7     3    10    1
     8     3    11    1
     9     4     6    1
    10     4    12    1
    11     4    13    1
    12     5     7    1
    13     5    14    1
    14     5    15    1
    15     6     8    1
    16     6    16    1
    17     7     9    1
    18     7    17    1
    19     7    18    1
    20     8    19    1
    21     8    20    1
    22     9    21    1
    23     9    22    1
    24     9    23    1
