@<TRIPOS>MOLECULE
IMPHY008087
 44 43 0 0 0
SMALL
GASTEIGER

@<TRIPOS>ATOM
      1 O           9.4651    2.3450    0.0000 O.3     1  UNL1       -0.3892
      2 O           8.5991   -0.1550    0.0000 O.3     1  UNL1       -0.3883
      3 O           2.5369   -0.6550    0.0000 O.3     1  UNL1       -0.3757
      4 C          10.3312    0.8450    0.0000 C.3     1  UNL1       -0.0244
      5 C          11.1972    1.3450    0.0000 C.3     1  UNL1       -0.0506
      6 C           9.4651    1.3450    0.0000 C.3     1  UNL1        0.0819
      7 C          12.0632    0.8450    0.0000 C.3     1  UNL1       -0.0527
      8 C           8.5991    0.8450    0.0000 C.3     1  UNL1        0.0918
      9 C          12.9292    1.3450    0.0000 C.3     1  UNL1       -0.0496
     10 C           7.7331    1.3450    0.0000 C.3     1  UNL1        0.0385
     11 C          13.7953    0.8450    0.0000 C.3     1  UNL1       -0.0350
     12 C          14.6613    1.3450    0.0000 C.2     1  UNL1       -0.0911
     13 C           6.8671    0.8450    0.0000 C.1     1  UNL1       -0.0858
     14 C          15.5273    0.8450    0.0000 C.2     1  UNL1       -0.1026
     15 C           6.0010    0.3450    0.0000 C.1     1  UNL1       -0.0147
     16 C           5.1350   -0.1550    0.0000 C.1     1  UNL1       -0.0119
     17 C           4.2690   -0.6550    0.0000 C.1     1  UNL1       -0.0529
     18 C           3.4030   -1.1550    0.0000 C.3     1  UNL1        0.1348
     19 C           3.4030   -2.1550    0.0000 C.2     1  UNL1       -0.0510
     20 C           2.5369   -2.6550    0.0000 C.2     1  UNL1       -0.0993
     21 H           9.9326    0.3701    0.0000 H       1  UNL1        0.0291
     22 H          10.7297    0.3701    0.0000 H       1  UNL1        0.0291
     23 H          10.2013    1.7700    0.0000 H       1  UNL1        0.0619
     24 H          11.5957    1.8200    0.0000 H       1  UNL1        0.0266
     25 H          10.7987    1.8200    0.0000 H       1  UNL1        0.0266
     26 H          11.6647    0.3701    0.0000 H       1  UNL1        0.0265
     27 H          12.4617    0.3701    0.0000 H       1  UNL1        0.0265
     28 H           7.8630    0.4200    0.0000 H       1  UNL1        0.0628
     29 H          13.3278    1.8200    0.0000 H       1  UNL1        0.0268
     30 H          12.5307    1.8200    0.0000 H       1  UNL1        0.0268
     31 H           8.1316    1.8200    0.0000 H       1  UNL1        0.0424
     32 H           7.3346    1.8200    0.0000 H       1  UNL1        0.0424
     33 H          13.3967    0.3701    0.0000 H       1  UNL1        0.0307
     34 H          14.1938    0.3701    0.0000 H       1  UNL1        0.0307
     35 H          10.0021    2.6550    0.0000 H       1  UNL1        0.2099
     36 H           8.0622   -0.4650    0.0000 H       1  UNL1        0.2099
     37 H          14.6613    1.9650    0.0000 H       1  UNL1        0.0566
     38 H          15.5273    0.2250    0.0000 H       1  UNL1        0.0532
     39 H          16.0643    1.1550    0.0000 H       1  UNL1        0.0532
     40 H           3.4030   -0.3050    0.0000 H       1  UNL1        0.0777
     41 H           3.9399   -2.4650    0.0000 H       1  UNL1        0.0601
     42 H           2.0000   -0.9650    0.0000 H       1  UNL1        0.2114
     43 H           2.0000   -2.3450    0.0000 H       1  UNL1        0.0533
     44 H           2.5369   -3.2750    0.0000 H       1  UNL1        0.0533
@<TRIPOS>BOND
     1     1     6    1
     2     1    35    1
     3     2     8    1
     4     2    36    1
     5     3    18    1
     6     3    42    1
     7     4     5    1
     8     4     6    1
     9     4    21    1
    10     4    22    1
    11     5     7    1
    12     5    24    1
    13     5    25    1
    14     6     8    1
    15     6    23    1
    16     7     9    1
    17     7    26    1
    18     7    27    1
    19     8    10    1
    20     8    28    1
    21     9    11    1
    22     9    29    1
    23     9    30    1
    24    10    13    1
    25    10    31    1
    26    10    32    1
    27    11    12    1
    28    11    33    1
    29    11    34    1
    30    12    14    2
    31    12    37    1
    32    13    15    3
    33    14    38    1
    34    14    39    1
    35    15    16    1
    36    16    17    3
    37    17    18    1
    38    18    19    1
    39    18    40    1
    40    19    20    2
    41    19    41    1
    42    20    43    1
    43    20    44    1
