@<TRIPOS>MOLECULE
IMPHY017530
 41 42 0 0 0
SMALL
GASTEIGER

@<TRIPOS>ATOM
      1 S           4.7320    0.7500    0.0000 S.O2    1  UNL1        0.0007
      2 O           4.2320    1.6160    0.0000 O.2     1  UNL1       -0.1690
      3 O           5.2320   -0.1160    0.0000 O.2     1  UNL1       -0.1690
      4 C           3.0000   -1.2500    0.0000 C.3     1  UNL1       -0.0121
      5 C           3.0000   -2.2500    0.0000 C.3     1  UNL1       -0.0438
      6 C           3.8660   -0.7500    0.0000 C.2     1  UNL1       -0.0438
      7 C           3.8660   -2.7500    0.0000 C.3     1  UNL1       -0.0486
      8 C           4.7320   -1.2500    0.0000 C.2     1  UNL1       -0.0713
      9 C           4.7320   -2.2500    0.0000 C.3     1  UNL1       -0.0317
     10 C           3.8660    0.2500    0.0000 C.3     1  UNL1        0.0926
     11 C           2.0000   -1.2500    0.0000 C.3     1  UNL1       -0.0560
     12 C           2.5000   -0.3840    0.0000 C.3     1  UNL1       -0.0560
     13 C           5.5981   -0.7500    0.0000 C.3     1  UNL1       -0.0435
     14 C           5.5981    1.2500    0.0000 C.ar    1  UNL1        0.0885
     15 C           6.4641    0.7500    0.0000 C.ar    1  UNL1       -0.0369
     16 C           5.5981    2.2500    0.0000 C.ar    1  UNL1       -0.0369
     17 C           7.3301    1.2500    0.0000 C.ar    1  UNL1       -0.0600
     18 C           6.4641    2.7500    0.0000 C.ar    1  UNL1       -0.0600
     19 C           7.3301    2.2500    0.0000 C.ar    1  UNL1       -0.0616
     20 H           2.3894   -2.1423    0.0000 H       1  UNL1        0.0274
     21 H           2.7880   -2.8326    0.0000 H       1  UNL1        0.0274
     22 H           3.4675   -3.2250    0.0000 H       1  UNL1        0.0269
     23 H           4.2646   -3.2250    0.0000 H       1  UNL1        0.0269
     24 H           4.9441   -2.8326    0.0000 H       1  UNL1        0.0310
     25 H           5.3426   -2.1423    0.0000 H       1  UNL1        0.0310
     26 H           3.6540    0.8326    0.0000 H       1  UNL1        0.0551
     27 H           3.2554    0.1423    0.0000 H       1  UNL1        0.0551
     28 H           2.0000   -0.6300    0.0000 H       1  UNL1        0.0238
     29 H           1.3800   -1.2500    0.0000 H       1  UNL1        0.0238
     30 H           2.0000   -1.8700    0.0000 H       1  UNL1        0.0238
     31 H           3.0369   -0.0740    0.0000 H       1  UNL1        0.0238
     32 H           2.1900    0.1530    0.0000 H       1  UNL1        0.0238
     33 H           1.9631   -0.6940    0.0000 H       1  UNL1        0.0238
     34 H           5.9081   -1.2869    0.0000 H       1  UNL1        0.0274
     35 H           6.1350   -0.4400    0.0000 H       1  UNL1        0.0274
     36 H           5.2881   -0.2131    0.0000 H       1  UNL1        0.0274
     37 H           6.4641    0.1300    0.0000 H       1  UNL1        0.0636
     38 H           5.0611    2.5600    0.0000 H       1  UNL1        0.0636
     39 H           7.8671    0.9400    0.0000 H       1  UNL1        0.0618
     40 H           6.4641    3.3700    0.0000 H       1  UNL1        0.0618
     41 H           7.8671    2.5600    0.0000 H       1  UNL1        0.0618
@<TRIPOS>BOND
     1     1     2    2
     2     1     3    2
     3     1    10    1
     4     1    14    1
     5     4     5    1
     6     4     6    1
     7     4    11    1
     8     4    12    1
     9     5     7    1
    10     5    20    1
    11     5    21    1
    12     6     8    2
    13     6    10    1
    14     7     9    1
    15     7    22    1
    16     7    23    1
    17     8     9    1
    18     8    13    1
    19     9    24    1
    20     9    25    1
    21    10    26    1
    22    10    27    1
    23    11    28    1
    24    11    29    1
    25    11    30    1
    26    12    31    1
    27    12    32    1
    28    12    33    1
    29    13    34    1
    30    13    35    1
    31    13    36    1
    32    14    15   ar
    33    14    16   ar
    34    15    17   ar
    35    15    37    1
    36    16    18   ar
    37    16    38    1
    38    17    19   ar
    39    17    39    1
    40    18    19   ar
    41    18    40    1
    42    19    41    1
