@<TRIPOS>MOLECULE
IMPHY000941
 166 174 0 0 0
SMALL
GASTEIGER

@<TRIPOS>ATOM
      1 O          10.1805    3.9306    0.0000 O.3     1  UNL1       -0.3915
      2 O           5.7625    6.4587    0.0000 O.3     1  UNL1       -0.3911
      3 O          11.1384    0.2657    0.0000 O.3     1  UNL1       -0.4589
      4 O           3.9791    6.4243    0.0000 O.3     1  UNL1       -0.3944
      5 O          10.2724   -1.2343    0.0000 O.2     1  UNL1       -0.2478
      6 O          12.8705   -0.7343    0.0000 O.3     1  UNL1       -0.3314
      7 O          11.1384   -2.7343    0.0000 O.3     1  UNL1       -0.3860
      8 O          12.8705   -3.7343    0.0000 O.3     1  UNL1       -0.3400
      9 O          14.6025   -0.7343    0.0000 O.3     1  UNL1       -0.3174
     10 O          14.6025   -2.7343    0.0000 O.3     1  UNL1       -0.3377
     11 O          11.1384   -3.7343    0.0000 O.3     1  UNL1       -0.3431
     12 O          15.4685    0.7657    0.0000 O.3     1  UNL1       -0.3404
     13 O          15.4685   -1.2343    0.0000 O.3     1  UNL1       -0.3405
     14 O          12.8705   -5.7343    0.0000 O.3     1  UNL1       -0.3841
     15 O          12.8705    0.2657    0.0000 O.3     1  UNL1       -0.3841
     16 O          16.3346   -3.7343    0.0000 O.3     1  UNL1       -0.3841
     17 O          11.1384   -6.7343    0.0000 O.3     1  UNL1       -0.3864
     18 O          12.8705    2.2657    0.0000 O.3     1  UNL1       -0.3864
     19 O           9.4064   -5.7343    0.0000 O.3     1  UNL1       -0.3866
     20 O          18.0666   -2.7343    0.0000 O.3     1  UNL1       -0.3864
     21 O          14.6025    3.2657    0.0000 O.3     1  UNL1       -0.3865
     22 O          18.0666   -0.7343    0.0000 O.3     1  UNL1       -0.3865
     23 O          16.3346    3.2657    0.0000 O.3     1  UNL1       -0.3924
     24 O          17.2006    0.7657    0.0000 O.3     1  UNL1       -0.3924
     25 C           7.5184    3.3962    0.0000 C.3     1  UNL1       -0.0170
     26 C           7.5223    2.3962    0.0000 C.3     1  UNL1       -0.0256
     27 C           8.4183    1.8650    0.0000 C.3     1  UNL1       -0.0225
     28 C           6.6505    3.8928    0.0000 C.3     1  UNL1       -0.0027
     29 C           9.3224    2.3823    0.0000 C.3     1  UNL1       -0.0008
     30 C           8.4103    3.9343    0.0000 C.3     1  UNL1       -0.0201
     31 C           9.3184    3.4240    0.0000 C.3     1  UNL1        0.0597
     32 C           5.7864    3.3895    0.0000 C.2     1  UNL1       -0.0632
     33 C          10.2682    1.8507    0.0000 C.3     1  UNL1        0.0078
     34 C           4.8745    3.8928    0.0000 C.3     1  UNL1       -0.0088
     35 C           4.8624    4.9344    0.0000 C.3     1  UNL1        0.0263
     36 C           6.6625    4.9344    0.0000 C.3     1  UNL1       -0.0166
     37 C           6.6582    1.8929    0.0000 C.3     1  UNL1       -0.0306
     38 C           8.3974    0.7802    0.0000 C.3     1  UNL1       -0.0436
     39 C           5.7625    5.4587    0.0000 C.3     1  UNL1        0.0643
     40 C           7.8568    4.3372    0.0000 C.3     1  UNL1       -0.0584
     41 C          10.2724    0.7657    0.0000 C.3     1  UNL1        0.1086
     42 C           5.7902    2.3895    0.0000 C.2     1  UNL1       -0.0836
     43 C           7.5503    1.3683    0.0000 C.3     1  UNL1       -0.0589
     44 C           9.3307    0.2269    0.0000 C.3     1  UNL1       -0.0146
     45 C           7.2903    4.6614    0.0000 C.3     1  UNL1       -0.0552
     46 C           3.9498    3.3252    0.0000 C.3     1  UNL1       -0.0406
     47 C           3.9249    5.4805    0.0000 C.3     1  UNL1       -0.0419
     48 C           2.9999    3.8495    0.0000 C.3     1  UNL1       -0.0343
     49 C           2.9873    4.9344    0.0000 C.3     1  UNL1       -0.0472
     50 C          10.7615    2.7206    0.0000 C.3     1  UNL1       -0.0561
     51 C          11.2682    1.8584    0.0000 C.3     1  UNL1       -0.0561
     52 C           4.8508    5.9344    0.0000 C.3     1  UNL1        0.0527
     53 C           2.0000    3.8341    0.0000 C.3     1  UNL1       -0.0598
     54 C           2.5133    2.9759    0.0000 C.3     1  UNL1       -0.0598
     55 C          11.1384   -0.7343    0.0000 C.2     1  UNL1        0.3393
     56 C          12.0044   -1.2343    0.0000 C.3     1  UNL1        0.1861
     57 C          12.0044   -2.2343    0.0000 C.3     1  UNL1        0.1205
     58 C          12.8705   -2.7343    0.0000 C.3     1  UNL1        0.1214
     59 C          13.7365   -1.2343    0.0000 C.3     1  UNL1        0.1918
     60 C          13.7365   -2.2343    0.0000 C.3     1  UNL1        0.1411
     61 C          12.0044   -4.2343    0.0000 C.3     1  UNL1        0.1883
     62 C          14.6025    0.2657    0.0000 C.3     1  UNL1        0.1909
     63 C          15.4685   -2.2343    0.0000 C.3     1  UNL1        0.1885
     64 C          12.0044   -5.2343    0.0000 C.3     1  UNL1        0.1341
     65 C          13.7365    0.7657    0.0000 C.3     1  UNL1        0.1342
     66 C          16.3346   -2.7343    0.0000 C.3     1  UNL1        0.1341
     67 C          11.1384   -5.7343    0.0000 C.3     1  UNL1        0.1140
     68 C          10.2724   -4.2343    0.0000 C.3     1  UNL1        0.0873
     69 C          13.7365    1.7657    0.0000 C.3     1  UNL1        0.1141
     70 C          10.2724   -5.2343    0.0000 C.3     1  UNL1        0.1095
     71 C          17.2006   -2.2343    0.0000 C.3     1  UNL1        0.1141
     72 C          15.4685    1.7657    0.0000 C.3     1  UNL1        0.1130
     73 C          16.3346   -0.7343    0.0000 C.3     1  UNL1        0.1130
     74 C          14.6025    2.2657    0.0000 C.3     1  UNL1        0.1119
     75 C          17.2006   -1.2343    0.0000 C.3     1  UNL1        0.1119
     76 C           9.4064   -3.7343    0.0000 C.3     1  UNL1       -0.0361
     77 C          16.3346    2.2657    0.0000 C.3     1  UNL1        0.0730
     78 C          16.3346    0.2657    0.0000 C.3     1  UNL1        0.0730
     79 H           8.0604    2.7041    0.0000 H       1  UNL1        0.0315
     80 H           9.8569    2.6964    0.0000 H       1  UNL1        0.0337
     81 H           8.8021    4.4148    0.0000 H       1  UNL1        0.0296
     82 H           8.0039    4.4025    0.0000 H       1  UNL1        0.0296
     83 H           9.3124    4.0439    0.0000 H       1  UNL1        0.0596
     84 H           4.8941    3.0431    0.0000 H       1  UNL1        0.0353
     85 H           7.2721    4.8213    0.0000 H       1  UNL1        0.0299
     86 H           6.8783    5.5156    0.0000 H       1  UNL1        0.0299
     87 H           6.2615    1.4164    0.0000 H       1  UNL1        0.0310
     88 H           7.0586    1.4195    0.0000 H       1  UNL1        0.0310
     89 H           7.7887    0.8980    0.0000 H       1  UNL1        0.0272
     90 H           8.1771    0.2006    0.0000 H       1  UNL1        0.0272
     91 H           6.3000    5.7677    0.0000 H       1  UNL1        0.0600
     92 H           8.4402    4.1274    0.0000 H       1  UNL1        0.0235
     93 H           8.0666    4.9206    0.0000 H       1  UNL1        0.0235
     94 H           7.2734    4.5470    0.0000 H       1  UNL1        0.0235
     95 H          10.8087    1.0768    0.0000 H       1  UNL1        0.0739
     96 H           5.2545    2.0775    0.0000 H       1  UNL1        0.0572
     97 H           7.2424    1.9065    0.0000 H       1  UNL1        0.0235
     98 H           7.0122    1.0604    0.0000 H       1  UNL1        0.0235
     99 H           7.8583    0.8302    0.0000 H       1  UNL1        0.0235
    100 H           8.9279   -0.2445    0.0000 H       1  UNL1        0.0301
    101 H           9.7261   -0.2506    0.0000 H       1  UNL1        0.0301
    102 H           7.7668    4.2647    0.0000 H       1  UNL1        0.0238
    103 H           7.6870    5.1378    0.0000 H       1  UNL1        0.0238
    104 H           6.8138    5.0581    0.0000 H       1  UNL1        0.0238
    105 H           3.5617    2.8417    0.0000 H       1  UNL1        0.0276
    106 H           4.3598    2.8601    0.0000 H       1  UNL1        0.0276
    107 H           4.3240    5.9550    0.0000 H       1  UNL1        0.0272
    108 H           3.5257    5.9550    0.0000 H       1  UNL1        0.0272
    109 H           2.7715    5.5156    0.0000 H       1  UNL1        0.0271
    110 H           2.3777    4.8213    0.0000 H       1  UNL1        0.0271
    111 H          11.2730    1.2385    0.0000 H       1  UNL1        0.0236
    112 H          11.8882    1.8632    0.0000 H       1  UNL1        0.0236
    113 H          11.2634    2.4784    0.0000 H       1  UNL1        0.0236
    114 H          11.3008    2.4147    0.0000 H       1  UNL1        0.0236
    115 H          11.0674    3.2599    0.0000 H       1  UNL1        0.0236
    116 H          10.2222    3.0264    0.0000 H       1  UNL1        0.0236
    117 H           5.4626    5.8338    0.0000 H       1  UNL1        0.0564
    118 H           5.0561    6.5194    0.0000 H       1  UNL1        0.0564
    119 H          10.1757    4.5506    0.0000 H       1  UNL1        0.2098
    120 H           6.2994    6.7687    0.0000 H       1  UNL1        0.2098
    121 H           1.9716    3.2776    0.0000 H       1  UNL1        0.0235
    122 H           2.2116    2.4342    0.0000 H       1  UNL1        0.0235
    123 H           3.0549    2.6742    0.0000 H       1  UNL1        0.0235
    124 H           1.9904    4.4540    0.0000 H       1  UNL1        0.0235
    125 H           1.3801    3.8245    0.0000 H       1  UNL1        0.0235
    126 H           2.0096    3.2142    0.0000 H       1  UNL1        0.0235
    127 H           3.9719    7.0443    0.0000 H       1  UNL1        0.2094
    128 H          12.0044   -0.6143    0.0000 H       1  UNL1        0.0741
    129 H          12.0044   -2.8543    0.0000 H       1  UNL1        0.0652
    130 H          13.4074   -3.0443    0.0000 H       1  UNL1        0.0652
    131 H          14.2734   -1.5443    0.0000 H       1  UNL1        0.0939
    132 H          13.7365   -2.8543    0.0000 H       1  UNL1        0.0675
    133 H          10.6015   -2.4243    0.0000 H       1  UNL1        0.2100
    134 H          12.5414   -4.5443    0.0000 H       1  UNL1        0.0938
    135 H          14.0656   -0.0443    0.0000 H       1  UNL1        0.0938
    136 H          15.4685   -2.8543    0.0000 H       1  UNL1        0.0938
    137 H          12.0044   -5.8543    0.0000 H       1  UNL1        0.0671
    138 H          13.1996    1.0757    0.0000 H       1  UNL1        0.0671
    139 H          16.8715   -3.0443    0.0000 H       1  UNL1        0.0671
    140 H          10.6015   -6.0443    0.0000 H       1  UNL1        0.0648
    141 H          10.2724   -3.6143    0.0000 H       1  UNL1        0.0621
    142 H          13.7365    2.3857    0.0000 H       1  UNL1        0.0648
    143 H           9.7355   -4.9243    0.0000 H       1  UNL1        0.0646
    144 H          17.7375   -1.9243    0.0000 H       1  UNL1        0.0648
    145 H          16.0055    1.4557    0.0000 H       1  UNL1        0.0647
    146 H          15.7976   -0.4243    0.0000 H       1  UNL1        0.0647
    147 H          15.1395    2.5757    0.0000 H       1  UNL1        0.0647
    148 H          17.2006   -0.6143    0.0000 H       1  UNL1        0.0647
    149 H          12.8705   -6.3543    0.0000 H       1  UNL1        0.2101
    150 H          12.3335    0.5757    0.0000 H       1  UNL1        0.2101
    151 H          16.8715   -4.0443    0.0000 H       1  UNL1        0.2101
    152 H           9.7164   -3.1973    0.0000 H       1  UNL1        0.0255
    153 H           8.8694   -3.4243    0.0000 H       1  UNL1        0.0255
    154 H           9.0964   -4.2712    0.0000 H       1  UNL1        0.0255
    155 H          10.6015   -7.0443    0.0000 H       1  UNL1        0.2100
    156 H          16.5466    1.6831    0.0000 H       1  UNL1        0.0584
    157 H          16.9452    2.3734    0.0000 H       1  UNL1        0.0584
    158 H          16.1225    0.8484    0.0000 H       1  UNL1        0.0584
    159 H          15.7240    0.1581    0.0000 H       1  UNL1        0.0584
    160 H          12.8705    2.8857    0.0000 H       1  UNL1        0.2100
    161 H           8.8694   -5.4243    0.0000 H       1  UNL1        0.2100
    162 H          18.0666   -3.3543    0.0000 H       1  UNL1        0.2100
    163 H          14.0656    3.5757    0.0000 H       1  UNL1        0.2100
    164 H          18.6036   -1.0443    0.0000 H       1  UNL1        0.2100
    165 H          16.8715    3.5757    0.0000 H       1  UNL1        0.2095
    166 H          17.7375    0.4557    0.0000 H       1  UNL1        0.2095
@<TRIPOS>BOND
     1    31     1    1
     2     1   119    1
     3    39     2    1
     4     2   120    1
     5     3    41    1
     6     3    55    1
     7     4    52    1
     8     4   127    1
     9     5    55    2
    10     6    56    1
    11     6    59    1
    12    57     7    1
    13     7   133    1
    14    58     8    1
    15    61     8    1
    16    59     9    1
    17    62     9    1
    18    60    10    1
    19    63    10    1
    20    11    61    1
    21    11    68    1
    22    12    62    1
    23    12    72    1
    24    13    63    1
    25    13    73    1
    26    64    14    1
    27    14   149    1
    28    65    15    1
    29    15   150    1
    30    66    16    1
    31    16   151    1
    32    67    17    1
    33    17   155    1
    34    69    18    1
    35    18   160    1
    36    70    19    1
    37    19   161    1
    38    71    20    1
    39    20   162    1
    40    74    21    1
    41    21   163    1
    42    75    22    1
    43    22   164    1
    44    23    77    1
    45    23   165    1
    46    24    78    1
    47    24   166    1
    48    25    26    1
    49    25    28    1
    50    25    30    1
    51    25    40    1
    52    26    27    1
    53    26    37    1
    54    26    79    1
    55    27    29    1
    56    27    38    1
    57    27    43    1
    58    28    32    1
    59    28    36    1
    60    28    45    1
    61    29    31    1
    62    29    33    1
    63    29    80    1
    64    30    31    1
    65    30    81    1
    66    30    82    1
    67    31    83    1
    68    32    34    1
    69    32    42    2
    70    33    41    1
    71    33    50    1
    72    33    51    1
    73    34    35    1
    74    34    46    1
    75    34    84    1
    76    35    39    1
    77    35    47    1
    78    35    52    1
    79    36    39    1
    80    36    85    1
    81    36    86    1
    82    37    42    1
    83    37    87    1
    84    37    88    1
    85    38    44    1
    86    38    89    1
    87    38    90    1
    88    39    91    1
    89    40    92    1
    90    40    93    1
    91    40    94    1
    92    41    44    1
    93    41    95    1
    94    42    96    1
    95    43    97    1
    96    43    98    1
    97    43    99    1
    98    44   100    1
    99    44   101    1
   100    45   102    1
   101    45   103    1
   102    45   104    1
   103    46    48    1
   104    46   105    1
   105    46   106    1
   106    47    49    1
   107    47   107    1
   108    47   108    1
   109    48    49    1
   110    48    53    1
   111    48    54    1
   112    49   109    1
   113    49   110    1
   114    50   114    1
   115    50   115    1
   116    50   116    1
   117    51   111    1
   118    51   112    1
   119    51   113    1
   120    52   117    1
   121    52   118    1
   122    53   124    1
   123    53   125    1
   124    53   126    1
   125    54   121    1
   126    54   122    1
   127    54   123    1
   128    56    55    1
   129    56    57    1
   130    56   128    1
   131    57    58    1
   132    57   129    1
   133    58    60    1
   134    58   130    1
   135    59    60    1
   136    59   131    1
   137    60   132    1
   138    61    64    1
   139    61   134    1
   140    62    65    1
   141    62   135    1
   142    63    66    1
   143    63   136    1
   144    64    67    1
   145    64   137    1
   146    65    69    1
   147    65   138    1
   148    66    71    1
   149    66   139    1
   150    67    70    1
   151    67   140    1
   152    68    70    1
   153    68    76    1
   154    68   141    1
   155    69    74    1
   156    69   142    1
   157    70   143    1
   158    71    75    1
   159    71   144    1
   160    72    74    1
   161    72    77    1
   162    72   145    1
   163    73    75    1
   164    73    78    1
   165    73   146    1
   166    74   147    1
   167    75   148    1
   168    76   152    1
   169    76   153    1
   170    76   154    1
   171    77   156    1
   172    77   157    1
   173    78   158    1
   174    78   159    1
