@<TRIPOS>MOLECULE
IMPHY001268
 56 59 0 0 0
SMALL
GASTEIGER

@<TRIPOS>ATOM
      1 O           5.1350   -1.2857    0.0000 O.3     1  UNL1       -0.3313
      2 O           6.8671   -1.2857    0.0000 O.3     1  UNL1       -0.4515
      3 O           5.1350   -4.2857    0.0000 O.3     1  UNL1       -0.3864
      4 O           3.4030   -3.2857    0.0000 O.3     1  UNL1       -0.3865
      5 O           6.8671   -3.2857    0.0000 O.3     1  UNL1       -0.3829
      6 O           2.5369   -1.7857    0.0000 O.3     1  UNL1       -0.3924
      7 O           7.7331    1.2143    0.0000 O.2     1  UNL1       -0.1997
      8 O           4.2308    1.2112    0.0000 O.3     1  UNL1       -0.5057
      9 O           9.4651   -2.7857    0.0000 O.3     1  UNL1       -0.4914
     10 O           5.9889    4.2836    0.0000 O.3     1  UNL1       -0.5063
     11 O          11.1972   -1.7857    0.0000 O.3     1  UNL1       -0.5033
     12 C           5.1350   -3.2857    0.0000 C.3     1  UNL1        0.1152
     13 C           4.2690   -2.7857    0.0000 C.3     1  UNL1        0.1120
     14 C           6.0010   -2.7857    0.0000 C.3     1  UNL1        0.1454
     15 C           4.2690   -1.7857    0.0000 C.3     1  UNL1        0.1140
     16 C           6.0010   -1.7857    0.0000 C.3     1  UNL1        0.2312
     17 C           3.4030   -1.2857    0.0000 C.3     1  UNL1        0.0731
     18 C           6.8671   -0.2857    0.0000 C.ar    1  UNL1        0.2288
     19 C           7.7331    0.2143    0.0000 C.ar    1  UNL1        0.4046
     20 C           6.0010    0.2143    0.0000 C.ar    1  UNL1        0.0093
     21 C           6.0010    1.2143    0.0000 C.ar    1  UNL1        0.1241
     22 C           6.8671    1.7143    0.0000 C.ar    1  UNL1        0.3708
     23 C           8.5991   -0.2857    0.0000 C.ar    1  UNL1        0.0865
     24 C           5.0910    1.7212    0.0000 C.ar    1  UNL1        0.1366
     25 C           6.8831    2.7558    0.0000 C.ar    1  UNL1        0.0847
     26 C           8.5991   -1.2857    0.0000 C.ar    1  UNL1       -0.0001
     27 C           9.4651    0.2143    0.0000 C.ar    1  UNL1       -0.0418
     28 C           5.0830    2.7628    0.0000 C.ar    1  UNL1        0.0225
     29 C           5.9851    3.2836    0.0000 C.ar    1  UNL1        0.1293
     30 C           9.4651   -1.7857    0.0000 C.ar    1  UNL1        0.1621
     31 C          10.3312   -0.2857    0.0000 C.ar    1  UNL1       -0.0157
     32 C          10.3312   -1.2857    0.0000 C.ar    1  UNL1        0.1585
     33 C          10.3312   -3.2857    0.0000 C.3     1  UNL1        0.0790
     34 H           5.6720   -3.5957    0.0000 H       1  UNL1        0.0648
     35 H           4.2690   -3.4057    0.0000 H       1  UNL1        0.0647
     36 H           6.5380   -2.4757    0.0000 H       1  UNL1        0.0683
     37 H           4.2690   -1.1657    0.0000 H       1  UNL1        0.0647
     38 H           6.0010   -1.1657    0.0000 H       1  UNL1        0.1084
     39 H           3.8015   -0.8107    0.0000 H       1  UNL1        0.0584
     40 H           3.0044   -0.8107    0.0000 H       1  UNL1        0.0584
     41 H           4.5981   -4.5957    0.0000 H       1  UNL1        0.2100
     42 H           3.4030   -3.9057    0.0000 H       1  UNL1        0.2100
     43 H           6.8671   -3.9057    0.0000 H       1  UNL1        0.2102
     44 H           2.0000   -1.4757    0.0000 H       1  UNL1        0.2095
     45 H           5.4641   -0.0957    0.0000 H       1  UNL1        0.0667
     46 H           7.4236    3.0596    0.0000 H       1  UNL1        0.0749
     47 H           8.0622   -1.5957    0.0000 H       1  UNL1        0.0664
     48 H           9.4651    0.8343    0.0000 H       1  UNL1        0.0628
     49 H           4.5449    3.0707    0.0000 H       1  UNL1        0.0691
     50 H          10.8681    0.0243    0.0000 H       1  UNL1        0.0655
     51 H           3.6904    1.5150    0.0000 H       1  UNL1        0.2922
     52 H           5.4532    4.5957    0.0000 H       1  UNL1        0.2921
     53 H          11.7341   -1.4757    0.0000 H       1  UNL1        0.2923
     54 H          10.0212   -3.8226    0.0000 H       1  UNL1        0.0660
     55 H          10.8681   -3.5957    0.0000 H       1  UNL1        0.0660
     56 H          10.6412   -2.7487    0.0000 H       1  UNL1        0.0660
@<TRIPOS>UNITY_ATOM_ATTR
7 1
charge 1
@<TRIPOS>BOND
     1     1    15    1
     2     1    16    1
     3    16     2    1
     4     2    18    1
     5    12     3    1
     6     3    41    1
     7    13     4    1
     8     4    42    1
     9    14     5    1
    10     5    43    1
    11     6    17    1
    12     6    44    1
    13     7    19   ar
    14     7    22   ar
    15     8    24    1
    16     8    51    1
    17     9    30    1
    18     9    33    1
    19    10    29    1
    20    10    52    1
    21    11    32    1
    22    11    53    1
    23    12    13    1
    24    12    14    1
    25    12    34    1
    26    13    15    1
    27    13    35    1
    28    14    16    1
    29    14    36    1
    30    15    17    1
    31    15    37    1
    32    16    38    1
    33    17    39    1
    34    17    40    1
    35    18    19   ar
    36    18    20   ar
    37    19    23    1
    38    20    21   ar
    39    20    45    1
    40    21    22   ar
    41    21    24   ar
    42    22    25   ar
    43    23    26   ar
    44    23    27   ar
    45    24    28   ar
    46    25    29   ar
    47    25    46    1
    48    26    30   ar
    49    26    47    1
    50    27    31   ar
    51    27    48    1
    52    28    29   ar
    53    28    49    1
    54    30    32   ar
    55    31    32   ar
    56    31    50    1
    57    33    54    1
    58    33    55    1
    59    33    56    1
