@<TRIPOS>MOLECULE
IMPHY010203
 33 35 0 0 0
SMALL
GASTEIGER

@<TRIPOS>ATOM
      1 C           7.9792    0.5708    0.0000 C.ar    1  UNL1        0.2077
      2 C           7.9792   -0.3458    0.0000 C.ar    1  UNL1        0.0846
      3 C           8.7708   -0.8000    0.0000 C.ar    1  UNL1        0.2074
      4 C           9.5667   -0.3458    0.0000 C.ar    1  UNL1        0.1385
      5 C           9.5667    0.5708    0.0000 C.ar    1  UNL1        0.3799
      6 C           8.7708    1.0292    0.0000 C.ar    1  UNL1        0.1467
      7 C          10.3583   -0.8000    0.0000 C.ar    1  UNL1        0.0580
      8 C          11.1500   -0.3458    0.0000 C.ar    1  UNL1        0.2372
      9 C          11.1500    0.5708    0.0000 C.ar    1  UNL1        0.4066
     10 O          10.3583    1.0292    0.0000 O.2     1  UNL1       -0.1989
     11 C          11.9375    1.0250    0.0000 C.ar    1  UNL1        0.1058
     12 C          12.7333    0.5708    0.0000 C.ar    1  UNL1        0.0544
     13 C          13.5250    1.0250    0.0000 C.ar    1  UNL1        0.2376
     14 C          13.5250    1.9417    0.0000 C.ar    1  UNL1        0.2677
     15 C          12.7333    2.4000    0.0000 C.ar    1  UNL1        0.1809
     16 C          11.9375    1.9417    0.0000 C.ar    1  UNL1        0.0492
     17 O          12.7333    3.3125    0.0000 O.3     1  UNL1       -0.4681
     18 O          14.3125    2.3958    0.0000 O.3     1  UNL1       -0.2799
     19 O           7.1917    1.0250    0.0000 O.3     1  UNL1       -0.2861
     20 O           8.7708   -1.7125    0.0000 O.3     1  UNL1       -0.2862
     21 O          11.9417   -0.8000    0.0000 O.3     1  UNL1       -0.4416
     22 C          11.9417   -1.7167    0.0000 C.3     1  UNL1        0.3221
     23 O          11.1500   -2.1750    0.0000 O.3     1  UNL1       -0.3158
     24 C          11.1500   -3.0875    0.0000 C.3     1  UNL1        0.1814
     25 C          11.9417   -3.5458    0.0000 C.3     1  UNL1        0.2144
     26 C          12.7333   -3.0875    0.0000 C.3     1  UNL1        0.2211
     27 C          12.7333   -2.1750    0.0000 C.3     1  UNL1        0.2542
     28 O          13.5250   -3.5458    0.0000 O.3     1  UNL1       -0.2173
     29 O          11.9417   -4.4583    0.0000 O.3     1  UNL1       -0.2176
     30 O          13.5250   -1.7167    0.0000 O.3     1  UNL1       -0.2135
     31 C          13.5250    3.7667    0.0000 C.3     1  UNL1        0.2526
     32 O          14.3167    0.5708    0.0000 O.3     1  UNL1       -0.2830
     33 CL         10.2458    2.1708    0.0000 Cl      2  UNL2        0.0000
@<TRIPOS>UNITY_ATOM_ATTR
10 1
charge 1
33 1
charge -1
@<TRIPOS>BOND
     1     1     2   ar
     2     1    19    1
     3     2     3   ar
     4     3     4   ar
     5     3    20    1
     6     4     5   ar
     7     4     7   ar
     8     5     6   ar
     9     6     1   ar
    10     7     8   ar
    11     8     9   ar
    12     8    21    1
    13     9    10   ar
    14     9    11    1
    15    10     5   ar
    16    11    12   ar
    17    12    13   ar
    18    13    14   ar
    19    13    32    1
    20    14    15   ar
    21    14    18    1
    22    15    16   ar
    23    15    17    1
    24    16    11   ar
    25    17    31    1
    26    22    21    1
    27    22    23    1
    28    23    24    1
    29    24    25    1
    30    25    26    1
    31    25    29    1
    32    26    27    1
    33    26    28    1
    34    27    22    1
    35    27    30    1
