@<TRIPOS>MOLECULE
IMPHY013015
 36 40 0 0 0
SMALL
GASTEIGER

@<TRIPOS>ATOM
      1 O           8.6480    2.1172    0.0000 O.2     1  UNL1       -0.2669
      2 O           7.2616   -2.1681    0.0000 O.3     1  UNL1       -0.5046
      3 N           6.9654    1.5672    0.0000 N.ar    1  UNL1       -0.2908
      4 N           4.5124    0.4498    0.0000 N.ar    1  UNL1       -0.3515
      5 N           6.6028   -0.1714    0.0000 N.ar    1  UNL1       -0.2236
      6 C           5.0091    1.9830    0.0000 C.ar    1  UNL1       -0.0097
      7 C           5.6782    2.7262    0.0000 C.3     1  UNL1       -0.0068
      8 C           5.3181    1.0320    0.0000 C.ar    1  UNL1        0.0867
      9 C           6.6564    2.5183    0.0000 C.3     1  UNL1        0.0322
     10 C           6.2962    0.8241    0.0000 C.ar    1  UNL1        0.1608
     11 C           4.0150    1.9805    0.0000 C.ar    1  UNL1        0.0036
     12 C           3.7086    1.0348    0.0000 C.ar    1  UNL1        0.0472
     13 C           7.9875    1.3664    0.0000 C.ar    1  UNL1        0.2622
     14 C           8.3170    0.3782    0.0000 C.ar    1  UNL1        0.0685
     15 C           7.6200   -0.3958    0.0000 C.ar    1  UNL1        0.1198
     16 C           3.3334    2.7600    0.0000 C.ar    1  UNL1       -0.0523
     17 C           2.6994    0.8030    0.0000 C.ar    1  UNL1       -0.0378
     18 C           2.3191    2.5516    0.0000 C.ar    1  UNL1       -0.0611
     19 C           2.0000    1.5666    0.0000 C.ar    1  UNL1       -0.0598
     20 C           9.3816    0.1691    0.0000 C.ar    1  UNL1       -0.0471
     21 C           7.9393   -1.4328    0.0000 C.ar    1  UNL1        0.1429
     22 C           9.7248   -0.8602    0.0000 C.ar    1  UNL1       -0.0575
     23 C           8.9988   -1.6665    0.0000 C.ar    1  UNL1       -0.0180
     24 H           5.9105    3.3010    0.0000 H       1  UNL1        0.0331
     25 H           5.1524    3.0547    0.0000 H       1  UNL1        0.0331
     26 H           7.2703    2.6046    0.0000 H       1  UNL1        0.0496
     27 H           6.6780    3.1379    0.0000 H       1  UNL1        0.0496
     28 H           4.5113   -0.1702    0.0000 H       1  UNL1        0.1660
     29 H           3.5313    3.3475    0.0000 H       1  UNL1        0.0624
     30 H           2.5152    0.2110    0.0000 H       1  UNL1        0.0638
     31 H           1.9056    3.0136    0.0000 H       1  UNL1        0.0618
     32 H           1.3942    1.4348    0.0000 H       1  UNL1        0.0618
     33 H           9.7911    0.6346    0.0000 H       1  UNL1        0.0626
     34 H          10.3318   -0.9868    0.0000 H       1  UNL1        0.0619
     35 H           9.1881   -2.2569    0.0000 H       1  UNL1        0.0655
     36 H           7.4464   -2.7600    0.0000 H       1  UNL1        0.2922
@<TRIPOS>BOND
     1     1    13    2
     2     2    21    1
     3     2    36    1
     4     3     9    1
     5     3    10   ar
     6     3    13   ar
     7     4     8   ar
     8     4    12   ar
     9     4    28    1
    10     5    10   ar
    11     5    15   ar
    12     6     7    1
    13     6     8   ar
    14     6    11   ar
    15     7     9    1
    16     7    24    1
    17     7    25    1
    18     8    10    1
    19     9    26    1
    20     9    27    1
    21    11    12   ar
    22    11    16   ar
    23    12    17   ar
    24    13    14   ar
    25    14    15   ar
    26    14    20   ar
    27    15    21   ar
    28    16    18   ar
    29    16    29    1
    30    17    19   ar
    31    17    30    1
    32    18    19   ar
    33    18    31    1
    34    19    32    1
    35    20    22   ar
    36    20    33    1
    37    21    23   ar
    38    22    23   ar
    39    22    34    1
    40    23    35    1
