@<TRIPOS>MOLECULE
IMPHY006984
 10 9 0 0 0
SMALL
GASTEIGER

@<TRIPOS>ATOM
      1 N           2.0000    0.5000    0.0000 N.1     1  UNL1       -0.1962
      2 C           3.7320   -0.5000    0.0000 C.3     1  UNL1        0.0527
      3 C           4.5981    0.0000    0.0000 C.2     1  UNL1       -0.0775
      4 C           5.4641   -0.5000    0.0000 C.2     1  UNL1       -0.1017
      5 C           2.8660    0.0000    0.0000 C.1     1  UNL1        0.0666
      6 H           3.3335   -0.9749    0.0000 H       1  UNL1        0.0461
      7 H           4.1306   -0.9749    0.0000 H       1  UNL1        0.0461
      8 H           4.5981    0.6200    0.0000 H       1  UNL1        0.0576
      9 H           5.4641   -1.1200    0.0000 H       1  UNL1        0.0532
     10 H           6.0010   -0.1900    0.0000 H       1  UNL1        0.0532
@<TRIPOS>BOND
     1     1     5    3
     2     2     3    1
     3     2     5    1
     4     2     6    1
     5     2     7    1
     6     3     4    2
     7     3     8    1
     8     4     9    1
     9     4    10    1
