@<TRIPOS>MOLECULE
IMPHY005065
 17 16 0 0 0
SMALL
GASTEIGER

@<TRIPOS>ATOM
      1 O           6.8671   -0.2500    0.0000 O.3     1  UNL1       -0.4774
      2 O           6.0010    1.2500    0.0000 O.2     1  UNL1       -0.2455
      3 N           2.5369    0.2500    0.0000 N.3     1  UNL1       -0.3297
      4 C           4.2690    0.2500    0.0000 C.3     1  UNL1       -0.0091
      5 C           3.4030   -0.2500    0.0000 C.3     1  UNL1       -0.0027
      6 C           5.1350   -0.2500    0.0000 C.2     1  UNL1        0.0305
      7 C           6.0010    0.2500    0.0000 C.2     1  UNL1        0.3322
      8 C           5.1350   -1.2500    0.0000 C.2     1  UNL1       -0.0887
      9 H           4.6675    0.7249    0.0000 H       1  UNL1        0.0327
     10 H           3.8705    0.7249    0.0000 H       1  UNL1        0.0327
     11 H           3.0044   -0.7249    0.0000 H       1  UNL1        0.0425
     12 H           3.8015   -0.7249    0.0000 H       1  UNL1        0.0425
     13 H           2.0000   -0.0600    0.0000 H       1  UNL1        0.1182
     14 H           2.5369    0.8700    0.0000 H       1  UNL1        0.1182
     15 H           4.5981   -1.5600    0.0000 H       1  UNL1        0.0540
     16 H           5.6720   -1.5600    0.0000 H       1  UNL1        0.0540
     17 H           7.4040    0.0600    0.0000 H       1  UNL1        0.2954
@<TRIPOS>BOND
     1     1     7    1
     2     1    17    1
     3     2     7    2
     4     3     5    1
     5     3    13    1
     6     3    14    1
     7     4     5    1
     8     4     6    1
     9     4     9    1
    10     4    10    1
    11     5    11    1
    12     5    12    1
    13     6     7    1
    14     6     8    2
    15     8    15    1
    16     8    16    1
