@<TRIPOS>MOLECULE
IMPHY002753
 30 34 0 0 0
SMALL
GASTEIGER

@<TRIPOS>ATOM
      1 O           6.4642    0.7936    0.0000 O.3     1  UNL1       -0.4520
      2 O           6.4642    2.4031    0.0000 O.3     1  UNL1       -0.4526
      3 O           2.0000   -0.9467    0.0000 O.2     1  UNL1       -0.2850
      4 N           2.0367    1.1197    0.0000 N.ar    1  UNL1       -0.2511
      5 C           4.6520    0.5984    0.0000 C.ar    1  UNL1        0.0381
      6 C           3.7860    1.0984    0.0000 C.ar    1  UNL1        0.0227
      7 C           4.6681   -0.4431    0.0000 C.ar    1  UNL1       -0.0027
      8 C           5.5180    1.0984    0.0000 C.ar    1  UNL1        0.1746
      9 C           3.7860    2.0984    0.0000 C.ar    1  UNL1       -0.0100
     10 C           2.8760    0.5915    0.0000 C.ar    1  UNL1        0.1193
     11 C           3.7700   -0.9709    0.0000 C.ar    1  UNL1        0.0317
     12 C           5.5180    2.0984    0.0000 C.ar    1  UNL1        0.1674
     13 C           4.6520    2.5984    0.0000 C.ar    1  UNL1       -0.0083
     14 C           2.8680   -0.4501    0.0000 C.2     1  UNL1        0.2124
     15 C           5.6200   -0.9638    0.0000 C.ar    1  UNL1       -0.0532
     16 C           2.9278    2.5953    0.0000 C.ar    1  UNL1       -0.0357
     17 C           7.0479    1.5984    0.0000 C.3     1  UNL1        0.2333
     18 C           3.7617   -2.0559    0.0000 C.ar    1  UNL1       -0.0503
     19 C           2.0623    2.1111    0.0000 C.ar    1  UNL1        0.0290
     20 C           5.6367   -2.0486    0.0000 C.ar    1  UNL1       -0.0611
     21 C           4.7013   -2.5984    0.0000 C.ar    1  UNL1       -0.0610
     22 H           4.6520    3.2184    0.0000 H       1  UNL1        0.0661
     23 H           6.1508   -0.6435    0.0000 H       1  UNL1        0.0624
     24 H           2.9324    3.2153    0.0000 H       1  UNL1        0.0639
     25 H           7.5087    1.1836    0.0000 H       1  UNL1        0.1166
     26 H           7.5087    2.0131    0.0000 H       1  UNL1        0.1166
     27 H           3.2235   -2.3638    0.0000 H       1  UNL1        0.0625
     28 H           1.5316    2.4316    0.0000 H       1  UNL1        0.0830
     29 H           6.1772   -2.3524    0.0000 H       1  UNL1        0.0618
     30 H           4.7037   -3.2184    0.0000 H       1  UNL1        0.0618
@<TRIPOS>BOND
     1     1     8    1
     2     1    17    1
     3     2    12    1
     4     2    17    1
     5     3    14    2
     6     4    10   ar
     7     4    19   ar
     8     5     6   ar
     9     5     7    1
    10     5     8   ar
    11     6     9   ar
    12     6    10   ar
    13     7    11   ar
    14     7    15   ar
    15     8    12   ar
    16     9    13   ar
    17     9    16   ar
    18    10    14    1
    19    11    14    1
    20    11    18   ar
    21    12    13   ar
    22    13    22    1
    23    15    20   ar
    24    15    23    1
    25    16    19   ar
    26    16    24    1
    27    17    25    1
    28    17    26    1
    29    18    21   ar
    30    18    27    1
    31    19    28    1
    32    20    21   ar
    33    20    29    1
    34    21    30    1
