@<TRIPOS>MOLECULE
IMPHY012628
 37 39 0 0 0
SMALL
GASTEIGER

@<TRIPOS>ATOM
      1 C           4.7266    0.2846    0.0000 C.3     1  UNL1        0.0159
      2 C           2.9945    0.2846    0.0000 C.3     1  UNL1       -0.0068
      3 C           2.9945    1.2846    0.0000 C.3     1  UNL1       -0.0129
      4 C           5.6366   -0.2222    0.0000 C.3     1  UNL1       -0.0218
      5 C           3.6775    0.4676    0.0000 C.3     1  UNL1       -0.0326
      6 C           3.8606   -0.2154    0.0000 C.2     1  UNL1       -0.0568
      7 C           4.7266    1.2846    0.0000 C.2     1  UNL1       -0.0770
      8 C           5.6446   -1.2638    0.0000 C.3     1  UNL1       -0.0433
      9 C           3.8606    1.7846    0.0000 C.2     1  UNL1       -0.0831
     10 C           3.8445   -1.2569    0.0000 C.2     1  UNL1       -0.0834
     11 C           4.7425   -1.7846    0.0000 C.3     1  UNL1       -0.0339
     12 C           2.0000    0.3892    0.0000 C.3     1  UNL1       -0.0555
     13 C           2.5878   -0.6289    0.0000 C.3     1  UNL1       -0.0555
     14 C           6.6365   -0.2107    0.0000 C.3     1  UNL1       -0.0587
     15 C           6.1265    0.6495    0.0000 C.3     1  UNL1       -0.0587
     16 H           2.4576    1.5946    0.0000 H       1  UNL1        0.0352
     17 H           3.1081    0.2224    0.0000 H       1  UNL1        0.0283
     18 H           3.7499   -0.1481    0.0000 H       1  UNL1        0.0283
     19 H           5.2635    1.5946    0.0000 H       1  UNL1        0.0578
     20 H           5.8582   -1.8459    0.0000 H       1  UNL1        0.0274
     21 H           6.2546   -1.1530    0.0000 H       1  UNL1        0.0274
     22 H           3.8606    2.4046    0.0000 H       1  UNL1        0.0572
     23 H           3.3040   -1.5607    0.0000 H       1  UNL1        0.0572
     24 H           4.3416   -2.2575    0.0000 H       1  UNL1        0.0308
     25 H           5.1398   -2.2606    0.0000 H       1  UNL1        0.0308
     26 H           2.0648    1.0058    0.0000 H       1  UNL1        0.0238
     27 H           1.3834    0.4540    0.0000 H       1  UNL1        0.0238
     28 H           1.9352   -0.2274    0.0000 H       1  UNL1        0.0238
     29 H           2.0214   -0.3767    0.0000 H       1  UNL1        0.0238
     30 H           2.3356   -1.1953    0.0000 H       1  UNL1        0.0238
     31 H           3.1542   -0.8811    0.0000 H       1  UNL1        0.0238
     32 H           6.6437   -0.8306    0.0000 H       1  UNL1        0.0235
     33 H           7.2565   -0.2035    0.0000 H       1  UNL1        0.0235
     34 H           6.6293    0.4093    0.0000 H       1  UNL1        0.0235
     35 H           6.6670    0.3458    0.0000 H       1  UNL1        0.0235
     36 H           6.4303    1.1900    0.0000 H       1  UNL1        0.0235
     37 H           5.5860    0.9533    0.0000 H       1  UNL1        0.0235
@<TRIPOS>BOND
     1     1     4    1
     2     1     5    1
     3     1     6    1
     4     1     7    1
     5     2     3    1
     6     2     6    1
     7     2    12    1
     8     2    13    1
     9     3     5    1
    10     3     9    1
    11     3    16    1
    12     4     8    1
    13     4    14    1
    14     4    15    1
    15     5    17    1
    16     5    18    1
    17     6    10    2
    18     7     9    2
    19     7    19    1
    20     8    11    1
    21     8    20    1
    22     8    21    1
    23     9    22    1
    24    10    11    1
    25    10    23    1
    26    11    24    1
    27    11    25    1
    28    12    26    1
    29    12    27    1
    30    12    28    1
    31    13    29    1
    32    13    30    1
    33    13    31    1
    34    14    32    1
    35    14    33    1
    36    14    34    1
    37    15    35    1
    38    15    36    1
    39    15    37    1
