@<TRIPOS>MOLECULE
IMPHY013651
 82 81 0 0 0
SMALL
GASTEIGER

@<TRIPOS>ATOM
      1 O          14.6613   -1.2500    0.0000 O.2     1  UNL1       -0.2974
      2 O           2.5369   -0.2500    0.0000 O.3     1  UNL1       -0.4806
      3 O           3.4030    1.2500    0.0000 O.2     1  UNL1       -0.2510
      4 C          18.9914    0.2500    0.0000 C.3     1  UNL1       -0.0531
      5 C          19.8574   -0.2500    0.0000 C.3     1  UNL1       -0.0531
      6 C          10.3312    0.2500    0.0000 C.3     1  UNL1       -0.0531
      7 C          18.1254   -0.2500    0.0000 C.3     1  UNL1       -0.0530
      8 C          20.7235    0.2500    0.0000 C.3     1  UNL1       -0.0531
      9 C           9.4651   -0.2500    0.0000 C.3     1  UNL1       -0.0531
     10 C          11.1972   -0.2500    0.0000 C.3     1  UNL1       -0.0530
     11 C           8.5991    0.2500    0.0000 C.3     1  UNL1       -0.0531
     12 C          17.2594    0.2500    0.0000 C.3     1  UNL1       -0.0527
     13 C          21.5895   -0.2500    0.0000 C.3     1  UNL1       -0.0531
     14 C          12.0632    0.2500    0.0000 C.3     1  UNL1       -0.0527
     15 C           7.7331   -0.2500    0.0000 C.3     1  UNL1       -0.0531
     16 C          16.3933   -0.2500    0.0000 C.3     1  UNL1       -0.0464
     17 C          12.9292   -0.2500    0.0000 C.3     1  UNL1       -0.0464
     18 C          22.4555    0.2500    0.0000 C.3     1  UNL1       -0.0531
     19 C           6.8671    0.2500    0.0000 C.3     1  UNL1       -0.0530
     20 C          15.5273    0.2500    0.0000 C.3     1  UNL1        0.0058
     21 C          13.7953    0.2500    0.0000 C.3     1  UNL1        0.0058
     22 C          23.3215   -0.2500    0.0000 C.3     1  UNL1       -0.0531
     23 C           6.0010   -0.2500    0.0000 C.3     1  UNL1       -0.0526
     24 C          14.6613   -0.2500    0.0000 C.2     1  UNL1        0.1334
     25 C          24.1876    0.2500    0.0000 C.3     1  UNL1       -0.0533
     26 C           5.1350    0.2500    0.0000 C.3     1  UNL1       -0.0430
     27 C          25.0536   -0.2500    0.0000 C.3     1  UNL1       -0.0559
     28 C           4.2690   -0.2500    0.0000 C.3     1  UNL1        0.0448
     29 C          25.9196    0.2500    0.0000 C.3     1  UNL1       -0.0653
     30 C           3.4030    0.2500    0.0000 C.2     1  UNL1        0.3047
     31 H          19.3899    0.7249    0.0000 H       1  UNL1        0.0265
     32 H          18.5929    0.7249    0.0000 H       1  UNL1        0.0265
     33 H          19.4589   -0.7249    0.0000 H       1  UNL1        0.0265
     34 H          20.2560   -0.7249    0.0000 H       1  UNL1        0.0265
     35 H          10.7297    0.7249    0.0000 H       1  UNL1        0.0265
     36 H           9.9326    0.7249    0.0000 H       1  UNL1        0.0265
     37 H          17.7269   -0.7249    0.0000 H       1  UNL1        0.0265
     38 H          18.5239   -0.7249    0.0000 H       1  UNL1        0.0265
     39 H          21.1220    0.7249    0.0000 H       1  UNL1        0.0265
     40 H          20.3249    0.7249    0.0000 H       1  UNL1        0.0265
     41 H           9.0666   -0.7249    0.0000 H       1  UNL1        0.0265
     42 H           9.8637   -0.7249    0.0000 H       1  UNL1        0.0265
     43 H          10.7987   -0.7249    0.0000 H       1  UNL1        0.0265
     44 H          11.5957   -0.7249    0.0000 H       1  UNL1        0.0265
     45 H           8.9976    0.7249    0.0000 H       1  UNL1        0.0265
     46 H           8.2006    0.7249    0.0000 H       1  UNL1        0.0265
     47 H          17.6579    0.7249    0.0000 H       1  UNL1        0.0265
     48 H          16.8608    0.7249    0.0000 H       1  UNL1        0.0265
     49 H          21.1910   -0.7249    0.0000 H       1  UNL1        0.0265
     50 H          21.9880   -0.7249    0.0000 H       1  UNL1        0.0265
     51 H          12.4617    0.7249    0.0000 H       1  UNL1        0.0265
     52 H          11.6647    0.7249    0.0000 H       1  UNL1        0.0265
     53 H           7.3346   -0.7249    0.0000 H       1  UNL1        0.0265
     54 H           8.1316   -0.7249    0.0000 H       1  UNL1        0.0265
     55 H          15.9948   -0.7249    0.0000 H       1  UNL1        0.0269
     56 H          16.7919   -0.7249    0.0000 H       1  UNL1        0.0269
     57 H          12.5307   -0.7249    0.0000 H       1  UNL1        0.0269
     58 H          13.3278   -0.7249    0.0000 H       1  UNL1        0.0269
     59 H          22.8540    0.7249    0.0000 H       1  UNL1        0.0265
     60 H          22.0570    0.7249    0.0000 H       1  UNL1        0.0265
     61 H           7.2656    0.7249    0.0000 H       1  UNL1        0.0265
     62 H           6.4685    0.7249    0.0000 H       1  UNL1        0.0265
     63 H          15.9258    0.7249    0.0000 H       1  UNL1        0.0342
     64 H          15.1288    0.7249    0.0000 H       1  UNL1        0.0342
     65 H          14.1938    0.7249    0.0000 H       1  UNL1        0.0342
     66 H          13.3967    0.7249    0.0000 H       1  UNL1        0.0342
     67 H          22.9230   -0.7249    0.0000 H       1  UNL1        0.0265
     68 H          23.7201   -0.7249    0.0000 H       1  UNL1        0.0265
     69 H           5.6025   -0.7249    0.0000 H       1  UNL1        0.0265
     70 H           6.3996   -0.7249    0.0000 H       1  UNL1        0.0265
     71 H          24.5861    0.7249    0.0000 H       1  UNL1        0.0265
     72 H          23.7890    0.7249    0.0000 H       1  UNL1        0.0265
     73 H           5.5335    0.7249    0.0000 H       1  UNL1        0.0270
     74 H           4.7365    0.7249    0.0000 H       1  UNL1        0.0270
     75 H          24.6551   -0.7249    0.0000 H       1  UNL1        0.0263
     76 H          25.4521   -0.7249    0.0000 H       1  UNL1        0.0263
     77 H           3.8705   -0.7249    0.0000 H       1  UNL1        0.0377
     78 H           4.6675   -0.7249    0.0000 H       1  UNL1        0.0377
     79 H          26.2296   -0.2869    0.0000 H       1  UNL1        0.0230
     80 H          26.4566    0.5600    0.0000 H       1  UNL1        0.0230
     81 H          25.6096    0.7869    0.0000 H       1  UNL1        0.0230
     82 H           2.0000    0.0600    0.0000 H       1  UNL1        0.2951
@<TRIPOS>BOND
     1     1    24    2
     2     2    30    1
     3     2    82    1
     4     3    30    2
     5     4     5    1
     6     4     7    1
     7     4    31    1
     8     4    32    1
     9     5     8    1
    10     5    33    1
    11     5    34    1
    12     6     9    1
    13     6    10    1
    14     6    35    1
    15     6    36    1
    16     7    12    1
    17     7    37    1
    18     7    38    1
    19     8    13    1
    20     8    39    1
    21     8    40    1
    22     9    11    1
    23     9    41    1
    24     9    42    1
    25    10    14    1
    26    10    43    1
    27    10    44    1
    28    11    15    1
    29    11    45    1
    30    11    46    1
    31    12    16    1
    32    12    47    1
    33    12    48    1
    34    13    18    1
    35    13    49    1
    36    13    50    1
    37    14    17    1
    38    14    51    1
    39    14    52    1
    40    15    19    1
    41    15    53    1
    42    15    54    1
    43    16    20    1
    44    16    55    1
    45    16    56    1
    46    17    21    1
    47    17    57    1
    48    17    58    1
    49    18    22    1
    50    18    59    1
    51    18    60    1
    52    19    23    1
    53    19    61    1
    54    19    62    1
    55    20    24    1
    56    20    63    1
    57    20    64    1
    58    21    24    1
    59    21    65    1
    60    21    66    1
    61    22    25    1
    62    22    67    1
    63    22    68    1
    64    23    26    1
    65    23    69    1
    66    23    70    1
    67    25    27    1
    68    25    71    1
    69    25    72    1
    70    26    28    1
    71    26    73    1
    72    26    74    1
    73    27    29    1
    74    27    75    1
    75    27    76    1
    76    28    30    1
    77    28    77    1
    78    28    78    1
    79    29    79    1
    80    29    80    1
    81    29    81    1
