@<TRIPOS>MOLECULE
IMPHY008975
 139 138 0 0 0
SMALL
GASTEIGER

@<TRIPOS>ATOM
      1 O          31.4449    4.9400    0.0000 O.3     1  UNL1       -0.3910
      2 C           6.3301   -4.5600    0.0000 C.3     1  UNL1       -0.0439
      3 C           7.1962   -4.0600    0.0000 C.3     1  UNL1       -0.0505
      4 C           8.0622   -4.5600    0.0000 C.3     1  UNL1       -0.0526
      5 C           9.7942   -4.5600    0.0000 C.3     1  UNL1       -0.0439
      6 C           8.9282   -4.0600    0.0000 C.3     1  UNL1       -0.0505
      7 C           5.4641   -4.0600    0.0000 C.3     1  UNL1       -0.0505
      8 C          10.6603   -4.0600    0.0000 C.3     1  UNL1       -0.0502
      9 C           4.5981   -4.5600    0.0000 C.3     1  UNL1       -0.0526
     10 C           3.7320   -4.0600    0.0000 C.3     1  UNL1       -0.0507
     11 C           6.3301   -5.5600    0.0000 C.3     1  UNL1       -0.0624
     12 C          11.5263   -4.5600    0.0000 C.3     1  UNL1       -0.0491
     13 C           9.7942   -5.5600    0.0000 C.3     1  UNL1       -0.0624
     14 C           2.8660   -4.5600    0.0000 C.3     1  UNL1       -0.0467
     15 C          12.3923   -4.0600    0.0000 C.3     1  UNL1       -0.0320
     16 C           2.0000   -4.0600    0.0000 C.3     1  UNL1       -0.0627
     17 C           2.8660   -5.5600    0.0000 C.3     1  UNL1       -0.0627
     18 C          13.2583   -4.5600    0.0000 C.2     1  UNL1       -0.0765
     19 C          14.1244   -4.0600    0.0000 C.2     1  UNL1       -0.0847
     20 C          13.2583   -5.5600    0.0000 C.3     1  UNL1       -0.0438
     21 C          14.9904   -4.5600    0.0000 C.3     1  UNL1       -0.0308
     22 C          15.8564   -4.0600    0.0000 C.3     1  UNL1       -0.0286
     23 C          16.7224   -4.5600    0.0000 C.2     1  UNL1       -0.0762
     24 C          17.5885   -4.0600    0.0000 C.2     1  UNL1       -0.0847
     25 C          16.7224   -5.5600    0.0000 C.3     1  UNL1       -0.0438
     26 C          17.5885   -3.0600    0.0000 C.3     1  UNL1       -0.0308
     27 C          18.4545   -2.5600    0.0000 C.3     1  UNL1       -0.0286
     28 C          18.4545   -1.5600    0.0000 C.2     1  UNL1       -0.0762
     29 C          19.3205   -1.0600    0.0000 C.2     1  UNL1       -0.0847
     30 C          20.1865   -1.5600    0.0000 C.3     1  UNL1       -0.0308
     31 C          21.0526   -1.0600    0.0000 C.3     1  UNL1       -0.0286
     32 C          17.5885   -1.0600    0.0000 C.3     1  UNL1       -0.0438
     33 C          21.9186   -1.5600    0.0000 C.2     1  UNL1       -0.0762
     34 C          22.7846   -0.0600    0.0000 C.3     1  UNL1       -0.0308
     35 C          23.6506    0.4400    0.0000 C.3     1  UNL1       -0.0286
     36 C          22.7846   -1.0600    0.0000 C.2     1  UNL1       -0.0847
     37 C          23.6506    1.4400    0.0000 C.2     1  UNL1       -0.0762
     38 C          25.3827    1.4400    0.0000 C.3     1  UNL1       -0.0308
     39 C          26.2487    1.9400    0.0000 C.3     1  UNL1       -0.0286
     40 C          24.5167    1.9400    0.0000 C.2     1  UNL1       -0.0847
     41 C          21.9186   -2.5600    0.0000 C.3     1  UNL1       -0.0438
     42 C          27.1147    1.4400    0.0000 C.2     1  UNL1       -0.0762
     43 C          22.7846    1.9400    0.0000 C.3     1  UNL1       -0.0438
     44 C          27.9808    2.9400    0.0000 C.3     1  UNL1       -0.0308
     45 C          27.9808    1.9400    0.0000 C.2     1  UNL1       -0.0847
     46 C          28.8468    3.4400    0.0000 C.3     1  UNL1       -0.0285
     47 C          27.1147    0.4400    0.0000 C.3     1  UNL1       -0.0438
     48 C          28.8468    4.4400    0.0000 C.2     1  UNL1       -0.0741
     49 C          27.9808    4.9400    0.0000 C.3     1  UNL1       -0.0437
     50 C          29.7128    4.9400    0.0000 C.2     1  UNL1       -0.0600
     51 C          30.5788    4.4400    0.0000 C.3     1  UNL1        0.0626
     52 H           6.8671   -4.8700    0.0000 H       1  UNL1        0.0298
     53 H           7.5947   -3.5850    0.0000 H       1  UNL1        0.0268
     54 H           6.7976   -3.5850    0.0000 H       1  UNL1        0.0268
     55 H           7.6636   -5.0350    0.0000 H       1  UNL1        0.0265
     56 H           8.4607   -5.0350    0.0000 H       1  UNL1        0.0265
     57 H           9.2573   -4.8700    0.0000 H       1  UNL1        0.0298
     58 H           9.3267   -3.5850    0.0000 H       1  UNL1        0.0268
     59 H           8.5297   -3.5850    0.0000 H       1  UNL1        0.0268
     60 H           5.8626   -3.5850    0.0000 H       1  UNL1        0.0268
     61 H           5.0656   -3.5850    0.0000 H       1  UNL1        0.0268
     62 H          11.0588   -3.5850    0.0000 H       1  UNL1        0.0268
     63 H          10.2617   -3.5850    0.0000 H       1  UNL1        0.0268
     64 H           4.1996   -5.0350    0.0000 H       1  UNL1        0.0265
     65 H           4.9966   -5.0350    0.0000 H       1  UNL1        0.0265
     66 H           4.1306   -3.5850    0.0000 H       1  UNL1        0.0268
     67 H           3.3335   -3.5850    0.0000 H       1  UNL1        0.0268
     68 H           5.7101   -5.5600    0.0000 H       1  UNL1        0.0232
     69 H           6.3301   -6.1800    0.0000 H       1  UNL1        0.0232
     70 H           6.9501   -5.5600    0.0000 H       1  UNL1        0.0232
     71 H          11.1278   -5.0350    0.0000 H       1  UNL1        0.0268
     72 H          11.9248   -5.0350    0.0000 H       1  UNL1        0.0268
     73 H           9.1742   -5.5600    0.0000 H       1  UNL1        0.0232
     74 H           9.7942   -6.1800    0.0000 H       1  UNL1        0.0232
     75 H          10.4142   -5.5600    0.0000 H       1  UNL1        0.0232
     76 H           2.8660   -3.9400    0.0000 H       1  UNL1        0.0295
     77 H          12.7908   -3.5850    0.0000 H       1  UNL1        0.0310
     78 H          11.9938   -3.5850    0.0000 H       1  UNL1        0.0310
     79 H           2.3100   -3.5231    0.0000 H       1  UNL1        0.0232
     80 H           2.2460   -5.5600    0.0000 H       1  UNL1        0.0232
     81 H           1.4631   -3.7500    0.0000 H       1  UNL1        0.0232
     82 H           1.6900   -4.5969    0.0000 H       1  UNL1        0.0232
     83 H           2.8660   -6.1800    0.0000 H       1  UNL1        0.0232
     84 H           3.4860   -5.5600    0.0000 H       1  UNL1        0.0232
     85 H          14.1244   -3.4400    0.0000 H       1  UNL1        0.0572
     86 H          12.6383   -5.5600    0.0000 H       1  UNL1        0.0274
     87 H          13.2583   -6.1800    0.0000 H       1  UNL1        0.0274
     88 H          13.8783   -5.5600    0.0000 H       1  UNL1        0.0274
     89 H          14.5919   -5.0350    0.0000 H       1  UNL1        0.0310
     90 H          15.3889   -5.0350    0.0000 H       1  UNL1        0.0310
     91 H          16.2549   -3.5850    0.0000 H       1  UNL1        0.0313
     92 H          15.4579   -3.5850    0.0000 H       1  UNL1        0.0313
     93 H          18.1254   -4.3700    0.0000 H       1  UNL1        0.0572
     94 H          16.1024   -5.5600    0.0000 H       1  UNL1        0.0274
     95 H          16.7224   -6.1800    0.0000 H       1  UNL1        0.0274
     96 H          17.3424   -5.5600    0.0000 H       1  UNL1        0.0274
     97 H          17.3764   -2.4774    0.0000 H       1  UNL1        0.0310
     98 H          16.9779   -3.1677    0.0000 H       1  UNL1        0.0310
     99 H          18.6665   -3.1426    0.0000 H       1  UNL1        0.0313
    100 H          19.0651   -2.4523    0.0000 H       1  UNL1        0.0313
    101 H          19.3205   -0.4400    0.0000 H       1  UNL1        0.0572
    102 H          19.7880   -2.0349    0.0000 H       1  UNL1        0.0310
    103 H          20.5851   -2.0349    0.0000 H       1  UNL1        0.0310
    104 H          21.4511   -0.5851    0.0000 H       1  UNL1        0.0313
    105 H          20.6540   -0.5851    0.0000 H       1  UNL1        0.0313
    106 H          17.8985   -0.5231    0.0000 H       1  UNL1        0.0274
    107 H          17.0515   -0.7500    0.0000 H       1  UNL1        0.0274
    108 H          17.2785   -1.5969    0.0000 H       1  UNL1        0.0274
    109 H          22.5726    0.5226    0.0000 H       1  UNL1        0.0310
    110 H          22.1740   -0.1677    0.0000 H       1  UNL1        0.0310
    111 H          23.8627   -0.1426    0.0000 H       1  UNL1        0.0313
    112 H          24.2612    0.5477    0.0000 H       1  UNL1        0.0313
    113 H          23.3215   -1.3700    0.0000 H       1  UNL1        0.0572
    114 H          24.9842    0.9651    0.0000 H       1  UNL1        0.0310
    115 H          25.7812    0.9651    0.0000 H       1  UNL1        0.0310
    116 H          26.6472    2.4150    0.0000 H       1  UNL1        0.0313
    117 H          25.8502    2.4150    0.0000 H       1  UNL1        0.0313
    118 H          24.5167    2.5600    0.0000 H       1  UNL1        0.0572
    119 H          21.2986   -2.5600    0.0000 H       1  UNL1        0.0274
    120 H          21.9186   -3.1800    0.0000 H       1  UNL1        0.0274
    121 H          22.5386   -2.5600    0.0000 H       1  UNL1        0.0274
    122 H          23.0946    2.4769    0.0000 H       1  UNL1        0.0274
    123 H          22.2477    2.2500    0.0000 H       1  UNL1        0.0274
    124 H          22.4746    1.4031    0.0000 H       1  UNL1        0.0274
    125 H          27.7687    3.5226    0.0000 H       1  UNL1        0.0310
    126 H          27.3702    2.8323    0.0000 H       1  UNL1        0.0310
    127 H          28.5177    1.6300    0.0000 H       1  UNL1        0.0572
    128 H          29.0588    2.8574    0.0000 H       1  UNL1        0.0313
    129 H          29.4574    3.5477    0.0000 H       1  UNL1        0.0313
    130 H          26.4947    0.4400    0.0000 H       1  UNL1        0.0274
    131 H          27.1147   -0.1800    0.0000 H       1  UNL1        0.0274
    132 H          27.7347    0.4400    0.0000 H       1  UNL1        0.0274
    133 H          28.2908    5.4769    0.0000 H       1  UNL1        0.0274
    134 H          27.4438    5.2500    0.0000 H       1  UNL1        0.0274
    135 H          27.6708    4.4031    0.0000 H       1  UNL1        0.0274
    136 H          29.7128    5.5600    0.0000 H       1  UNL1        0.0594
    137 H          30.1803    3.9650    0.0000 H       1  UNL1        0.0601
    138 H          30.9774    3.9650    0.0000 H       1  UNL1        0.0601
    139 H          31.9818    4.6300    0.0000 H       1  UNL1        0.2098
@<TRIPOS>BOND
     1     1    51    1
     2     1   139    1
     3     2     3    1
     4     2     7    1
     5     2    11    1
     6     2    52    1
     7     3     4    1
     8     3    53    1
     9     3    54    1
    10     4     6    1
    11     4    55    1
    12     4    56    1
    13     5     6    1
    14     5     8    1
    15     5    13    1
    16     5    57    1
    17     6    58    1
    18     6    59    1
    19     7     9    1
    20     7    60    1
    21     7    61    1
    22     8    12    1
    23     8    62    1
    24     8    63    1
    25     9    10    1
    26     9    64    1
    27     9    65    1
    28    10    14    1
    29    10    66    1
    30    10    67    1
    31    11    68    1
    32    11    69    1
    33    11    70    1
    34    12    15    1
    35    12    71    1
    36    12    72    1
    37    13    73    1
    38    13    74    1
    39    13    75    1
    40    14    16    1
    41    14    17    1
    42    14    76    1
    43    15    18    1
    44    15    77    1
    45    15    78    1
    46    16    79    1
    47    16    81    1
    48    16    82    1
    49    17    80    1
    50    17    83    1
    51    17    84    1
    52    18    19    2
    53    18    20    1
    54    19    21    1
    55    19    85    1
    56    20    86    1
    57    20    87    1
    58    20    88    1
    59    21    22    1
    60    21    89    1
    61    21    90    1
    62    22    23    1
    63    22    91    1
    64    22    92    1
    65    23    24    2
    66    23    25    1
    67    24    26    1
    68    24    93    1
    69    25    94    1
    70    25    95    1
    71    25    96    1
    72    26    27    1
    73    26    97    1
    74    26    98    1
    75    27    28    1
    76    27    99    1
    77    27   100    1
    78    28    29    2
    79    28    32    1
    80    29    30    1
    81    29   101    1
    82    30    31    1
    83    30   102    1
    84    30   103    1
    85    31    33    1
    86    31   104    1
    87    31   105    1
    88    32   106    1
    89    32   107    1
    90    32   108    1
    91    33    36    2
    92    33    41    1
    93    34    35    1
    94    34    36    1
    95    34   109    1
    96    34   110    1
    97    35    37    1
    98    35   111    1
    99    35   112    1
   100    36   113    1
   101    37    40    2
   102    37    43    1
   103    38    39    1
   104    38    40    1
   105    38   114    1
   106    38   115    1
   107    39    42    1
   108    39   116    1
   109    39   117    1
   110    40   118    1
   111    41   119    1
   112    41   120    1
   113    41   121    1
   114    42    45    2
   115    42    47    1
   116    43   122    1
   117    43   123    1
   118    43   124    1
   119    44    45    1
   120    44    46    1
   121    44   125    1
   122    44   126    1
   123    45   127    1
   124    46    48    1
   125    46   128    1
   126    46   129    1
   127    47   130    1
   128    47   131    1
   129    47   132    1
   130    48    49    1
   131    48    50    2
   132    49   133    1
   133    49   134    1
   134    49   135    1
   135    50    51    1
   136    50   136    1
   137    51   137    1
   138    51   138    1
