@<TRIPOS>MOLECULE
IMPHY003148
 47 46 0 0 0
SMALL
GASTEIGER

@<TRIPOS>ATOM
      1 K           2.5369   -5.7500    0.0000 K       1  UNL1        0.0000
      2 O           2.5369   -2.7500    0.0000 O.2     2  UNL2        0.0000
      3 O           6.0010   -2.7500    0.0000 O.2     2  UNL2        0.0000
      4 O           2.5369   -4.7500    0.0000 O.co2   2  UNL2       -1.0000
      5 O           6.0010   -4.7500    0.0000 O.2     2  UNL2        0.0000
      6 C           6.0010    1.2500    0.0000 C.3     2  UNL2        0.0000
      7 C           6.8671    1.7500    0.0000 C.3     2  UNL2        0.0000
      8 C           6.0010    0.2500    0.0000 C.3     2  UNL2        0.0000
      9 C           6.8671    2.7500    0.0000 C.3     2  UNL2        0.0000
     10 C           5.1350   -0.2500    0.0000 C.3     2  UNL2        0.0000
     11 C           7.7331    3.2500    0.0000 C.3     2  UNL2        0.0000
     12 C           5.1350   -1.2500    0.0000 C.3     2  UNL2        0.0000
     13 C           7.7331    4.2500    0.0000 C.3     2  UNL2        0.0000
     14 C           4.2690   -1.7500    0.0000 C.3     2  UNL2        0.0000
     15 C           8.5991    4.7500    0.0000 C.3     2  UNL2        0.0000
     16 C           4.2690   -2.7500    0.0000 C.2     2  UNL2        0.0000
     17 C           8.5991    5.7500    0.0000 C.3     2  UNL2        0.0000
     18 C           3.4030   -3.2500    0.0000 C.2     2  UNL2        0.0000
     19 C           5.1350   -3.2500    0.0000 C.2     2  UNL2        0.0000
     20 C           3.4030   -4.2500    0.0000 C.2     2  UNL2        0.0000
     21 C           5.1350   -4.2500    0.0000 C.2     2  UNL2        0.0000
     22 C           4.2690   -4.7500    0.0000 C.2     2  UNL2        0.0000
     23 H           5.7890    1.8326    0.0000 H       2  UNL2        0.0000
     24 H           5.3905    1.1423    0.0000 H       2  UNL2        0.0000
     25 H           7.0791    1.1674    0.0000 H       2  UNL2        0.0000
     26 H           7.4776    1.8577    0.0000 H       2  UNL2        0.0000
     27 H           6.2131   -0.3326    0.0000 H       2  UNL2        0.0000
     28 H           6.6116    0.3577    0.0000 H       2  UNL2        0.0000
     29 H           6.6550    3.3326    0.0000 H       2  UNL2        0.0000
     30 H           6.2565    2.6423    0.0000 H       2  UNL2        0.0000
     31 H           4.9230    0.3326    0.0000 H       2  UNL2        0.0000
     32 H           4.5244   -0.3577    0.0000 H       2  UNL2        0.0000
     33 H           7.9451    2.6674    0.0000 H       2  UNL2        0.0000
     34 H           8.3437    3.3577    0.0000 H       2  UNL2        0.0000
     35 H           5.3471   -1.8326    0.0000 H       2  UNL2        0.0000
     36 H           5.7456   -1.1423    0.0000 H       2  UNL2        0.0000
     37 H           7.5210    4.8326    0.0000 H       2  UNL2        0.0000
     38 H           7.1225    4.1423    0.0000 H       2  UNL2        0.0000
     39 H           4.0569   -1.1674    0.0000 H       2  UNL2        0.0000
     40 H           3.6584   -1.8577    0.0000 H       2  UNL2        0.0000
     41 H           8.8112    4.1674    0.0000 H       2  UNL2        0.0000
     42 H           9.2097    4.8577    0.0000 H       2  UNL2        0.0000
     43 H           9.2191    5.7500    0.0000 H       2  UNL2        0.0000
     44 H           8.5991    6.3700    0.0000 H       2  UNL2        0.0000
     45 H           7.9791    5.7500    0.0000 H       2  UNL2        0.0000
     46 H           4.2690   -5.3700    0.0000 H       2  UNL2        0.0000
     47 H           2.0000   -3.0600    0.0000 H       2  UNL2        0.0000
@<TRIPOS>UNITY_ATOM_ATTR
1 1
charge 1
4 1
charge -1
@<TRIPOS>BOND
     1     2    18    1
     2     2    47    1
     3     3    19    2
     4     4    20    1
     5     5    21    2
     6     6     7    1
     7     6     8    1
     8     6    23    1
     9     6    24    1
    10     7     9    1
    11     7    25    1
    12     7    26    1
    13     8    10    1
    14     8    27    1
    15     8    28    1
    16     9    11    1
    17     9    29    1
    18     9    30    1
    19    10    12    1
    20    10    31    1
    21    10    32    1
    22    11    13    1
    23    11    33    1
    24    11    34    1
    25    12    14    1
    26    12    35    1
    27    12    36    1
    28    13    15    1
    29    13    37    1
    30    13    38    1
    31    14    16    1
    32    14    39    1
    33    14    40    1
    34    15    17    1
    35    15    41    1
    36    15    42    1
    37    16    18    2
    38    16    19    1
    39    17    43    1
    40    17    44    1
    41    17    45    1
    42    18    20    1
    43    19    21    1
    44    20    22    2
    45    21    22    1
    46    22    46    1
