@<TRIPOS>MOLECULE
IMPHY007547
 19 19 0 0 0
SMALL
GASTEIGER

@<TRIPOS>ATOM
      1 O           3.7044   -1.4770    0.0000 O.3     1  UNL1       -0.4462
      2 O           2.6166    0.8709    0.0000 O.3     1  UNL1       -0.3738
      3 O           3.3854    1.7844    0.0000 O.3     1  UNL1       -0.4785
      4 O           2.1166   -2.2860    0.0000 O.2     1  UNL1       -0.2507
      5 O           5.3006   -1.6849    0.0000 O.3     1  UNL1       -0.4780
      6 O           4.7867    0.7663    0.0000 O.2     1  UNL1       -0.2476
      7 O           5.6607    0.0093    0.0000 O.2     1  UNL1       -0.2467
      8 C           3.2044    0.0619    0.0000 C.3     1  UNL1        0.2198
      9 C           4.0134   -0.5259    0.0000 C.3     1  UNL1        0.2378
     10 C           2.3954   -0.5259    0.0000 C.3     1  UNL1        0.0883
     11 C           2.7044   -1.4770    0.0000 C.2     1  UNL1        0.3114
     12 C           3.7922    0.8709    0.0000 C.2     1  UNL1        0.3417
     13 C           4.9916   -0.7338    0.0000 C.2     1  UNL1        0.3495
     14 H           4.3234   -1.0629    0.0000 H       1  UNL1        0.0889
     15 H           2.0854    0.0110    0.0000 H       1  UNL1        0.0413
     16 H           1.8290   -0.7781    0.0000 H       1  UNL1        0.0413
     17 H           2.0000    0.8061    0.0000 H       1  UNL1        0.2110
     18 H           3.7499    2.2860    0.0000 H       1  UNL1        0.2951
     19 H           5.9070   -1.8138    0.0000 H       1  UNL1        0.2952
@<TRIPOS>BOND
     1     1     9    1
     2     1    11    1
     3     8     2    1
     4     2    17    1
     5     3    12    1
     6     3    18    1
     7     4    11    2
     8     5    13    1
     9     5    19    1
    10     6    12    2
    11     7    13    2
    12     8     9    1
    13     8    10    1
    14     8    12    1
    15     9    13    1
    16     9    14    1
    17    10    11    1
    18    10    15    1
    19    10    16    1
