@<TRIPOS>MOLECULE
IMPHY004361
 65 66 0 0 0
SMALL
GASTEIGER

@<TRIPOS>ATOM
      1 O           6.3301   -5.0000    0.0000 O.3     1  UNL1       -0.3891
      2 O           3.7320    0.5000    0.0000 O.3     1  UNL1       -0.5055
      3 O           5.4641   -2.5000    0.0000 O.3     1  UNL1       -0.5063
      4 O           7.1962    0.5000    0.0000 O.3     1  UNL1       -0.4942
      5 O           4.5981    2.0000    0.0000 O.2     1  UNL1       -0.2870
      6 O           8.0622    2.0000    0.0000 O.3     1  UNL1       -0.5061
      7 O           9.7942    5.0000    0.0000 O.3     1  UNL1       -0.5066
      8 C           3.7320   -2.5000    0.0000 C.3     1  UNL1       -0.0161
      9 C           4.5981   -3.0000    0.0000 C.3     1  UNL1       -0.0436
     10 C           4.5981   -4.0000    0.0000 C.3     1  UNL1       -0.0240
     11 C           5.4641   -4.5000    0.0000 C.3     1  UNL1        0.0606
     12 C           3.7320   -1.5000    0.0000 C.3     1  UNL1       -0.0142
     13 C           2.8660   -3.0000    0.0000 C.2     1  UNL1       -0.0763
     14 C           4.5981   -1.0000    0.0000 C.ar    1  UNL1        0.0369
     15 C           4.9641   -5.3660    0.0000 C.3     1  UNL1       -0.0363
     16 C           5.9641   -3.6340    0.0000 C.3     1  UNL1       -0.0363
     17 C           2.8660   -4.0000    0.0000 C.3     1  UNL1       -0.0438
     18 C           4.5981    0.0000    0.0000 C.ar    1  UNL1        0.1378
     19 C           5.4641   -1.5000    0.0000 C.ar    1  UNL1        0.1270
     20 C           2.0000   -2.5000    0.0000 C.2     1  UNL1       -0.0994
     21 C           5.4641    0.5000    0.0000 C.ar    1  UNL1        0.1050
     22 C           6.3301   -1.0000    0.0000 C.ar    1  UNL1        0.0227
     23 C           6.3301    0.0000    0.0000 C.ar    1  UNL1        0.1379
     24 C           5.4641    1.5000    0.0000 C.2     1  UNL1        0.1931
     25 C           6.3301    2.0000    0.0000 C.2     1  UNL1       -0.0134
     26 C           8.0622    0.0000    0.0000 C.3     1  UNL1        0.0788
     27 C           6.3301    3.0000    0.0000 C.2     1  UNL1       -0.0475
     28 C           7.1962    3.5000    0.0000 C.ar    1  UNL1        0.0168
     29 C           8.0622    3.0000    0.0000 C.ar    1  UNL1        0.1274
     30 C           7.1962    4.5000    0.0000 C.ar    1  UNL1       -0.0477
     31 C           8.9282    3.5000    0.0000 C.ar    1  UNL1        0.0219
     32 C           8.0622    5.0000    0.0000 C.ar    1  UNL1       -0.0194
     33 C           8.9282    4.5000    0.0000 C.ar    1  UNL1        0.1204
     34 H           3.7320   -3.3500    0.0000 H       1  UNL1        0.0349
     35 H           5.2087   -3.1077    0.0000 H       1  UNL1        0.0272
     36 H           4.8101   -2.4174    0.0000 H       1  UNL1        0.0272
     37 H           3.9875   -3.8923    0.0000 H       1  UNL1        0.0293
     38 H           4.3860   -4.5826    0.0000 H       1  UNL1        0.0293
     39 H           3.5200   -0.9174    0.0000 H       1  UNL1        0.0321
     40 H           3.1215   -1.6077    0.0000 H       1  UNL1        0.0321
     41 H           6.5010   -3.9440    0.0000 H       1  UNL1        0.0257
     42 H           6.2741   -3.0970    0.0000 H       1  UNL1        0.0257
     43 H           5.4272   -3.3240    0.0000 H       1  UNL1        0.0257
     44 H           4.4272   -5.0560    0.0000 H       1  UNL1        0.0257
     45 H           4.6541   -5.9030    0.0000 H       1  UNL1        0.0257
     46 H           5.5010   -5.6760    0.0000 H       1  UNL1        0.0257
     47 H           2.2460   -4.0000    0.0000 H       1  UNL1        0.0274
     48 H           2.8660   -4.6200    0.0000 H       1  UNL1        0.0274
     49 H           3.4860   -4.0000    0.0000 H       1  UNL1        0.0274
     50 H           6.3301   -5.6200    0.0000 H       1  UNL1        0.2101
     51 H           2.0000   -1.8800    0.0000 H       1  UNL1        0.0534
     52 H           1.4631   -2.8100    0.0000 H       1  UNL1        0.0534
     53 H           6.8671   -1.3100    0.0000 H       1  UNL1        0.0691
     54 H           3.1951    0.1900    0.0000 H       1  UNL1        0.2922
     55 H           6.0010   -2.8100    0.0000 H       1  UNL1        0.2921
     56 H           6.8671    1.6900    0.0000 H       1  UNL1        0.0656
     57 H           7.7522   -0.5369    0.0000 H       1  UNL1        0.0660
     58 H           8.5991   -0.3100    0.0000 H       1  UNL1        0.0660
     59 H           8.3722    0.5369    0.0000 H       1  UNL1        0.0660
     60 H           5.7932    3.3100    0.0000 H       1  UNL1        0.0626
     61 H           6.6592    4.8100    0.0000 H       1  UNL1        0.0626
     62 H           9.4651    3.1900    0.0000 H       1  UNL1        0.0691
     63 H           8.0622    5.6200    0.0000 H       1  UNL1        0.0654
     64 H           8.5991    1.6900    0.0000 H       1  UNL1        0.2922
     65 H           9.7942    5.6200    0.0000 H       1  UNL1        0.2921
@<TRIPOS>BOND
     1     1    11    1
     2     1    50    1
     3     2    18    1
     4     2    54    1
     5     3    19    1
     6     3    55    1
     7     4    23    1
     8     4    26    1
     9     5    24    2
    10     6    29    1
    11     6    64    1
    12     7    33    1
    13     7    65    1
    14     8     9    1
    15     8    12    1
    16     8    13    1
    17     8    34    1
    18     9    10    1
    19     9    35    1
    20     9    36    1
    21    10    11    1
    22    10    37    1
    23    10    38    1
    24    11    15    1
    25    11    16    1
    26    12    14    1
    27    12    39    1
    28    12    40    1
    29    13    17    1
    30    13    20    2
    31    14    18   ar
    32    14    19   ar
    33    15    44    1
    34    15    45    1
    35    15    46    1
    36    16    41    1
    37    16    42    1
    38    16    43    1
    39    17    47    1
    40    17    48    1
    41    17    49    1
    42    18    21   ar
    43    19    22   ar
    44    20    51    1
    45    20    52    1
    46    21    23   ar
    47    21    24    1
    48    22    23   ar
    49    22    53    1
    50    24    25    1
    51    25    27    2
    52    25    56    1
    53    26    57    1
    54    26    58    1
    55    26    59    1
    56    27    28    1
    57    27    60    1
    58    28    29   ar
    59    28    30   ar
    60    29    31   ar
    61    30    32   ar
    62    30    61    1
    63    31    33   ar
    64    31    62    1
    65    32    33   ar
    66    32    63    1
