@<TRIPOS>MOLECULE
IMPHY006959
 14 14 0 0 0
SMALL
GASTEIGER

@<TRIPOS>ATOM
      1 O           2.8660    2.0000    0.0000 O.3     1  UNL1       -0.5068
      2 O           2.8660   -2.0000    0.0000 O.3     1  UNL1       -0.5068
      3 C           2.8660    1.0000    0.0000 C.ar    1  UNL1        0.1171
      4 C           2.8660   -1.0000    0.0000 C.ar    1  UNL1        0.1171
      5 C           2.0000    0.5000    0.0000 C.ar    1  UNL1       -0.0167
      6 C           2.0000   -0.5000    0.0000 C.ar    1  UNL1       -0.0167
      7 C           3.7320    0.5000    0.0000 C.ar    1  UNL1       -0.0167
      8 C           3.7320   -0.5000    0.0000 C.ar    1  UNL1       -0.0167
      9 H           1.4631    0.8100    0.0000 H       1  UNL1        0.0655
     10 H           1.4631   -0.8100    0.0000 H       1  UNL1        0.0655
     11 H           4.2690    0.8100    0.0000 H       1  UNL1        0.0655
     12 H           4.2690   -0.8100    0.0000 H       1  UNL1        0.0655
     13 H           3.4030    2.3100    0.0000 H       1  UNL1        0.2921
     14 H           2.3291   -2.3100    0.0000 H       1  UNL1        0.2921
@<TRIPOS>BOND
     1     1     3    1
     2     1    13    1
     3     2     4    1
     4     2    14    1
     5     3     5   ar
     6     3     7   ar
     7     4     6   ar
     8     4     8   ar
     9     5     6   ar
    10     5     9    1
    11     6    10    1
    12     7     8   ar
    13     7    11    1
    14     8    12    1
