@<TRIPOS>MOLECULE
IMPHY006045
 92 97 0 0 0
SMALL
GASTEIGER

@<TRIPOS>ATOM
      1 O           9.9650    0.8255    0.0000 O.3     1  UNL1       -0.3585
      2 O           7.8363    2.8173    0.0000 O.3     1  UNL1       -0.4581
      3 O           9.5407   -1.2697    0.0000 O.3     1  UNL1       -0.3888
      4 O          11.2842   -0.2898    0.0000 O.3     1  UNL1       -0.3858
      5 O          10.5045    3.2274    0.0000 O.3     1  UNL1       -0.4494
      6 O          11.9455    2.0687    0.0000 O.3     1  UNL1       -0.4659
      7 O          11.9255    0.3368    0.0000 O.2     1  UNL1       -0.2475
      8 O           8.7754    4.3083    0.0000 O.2     1  UNL1       -0.2466
      9 O           6.8671   -2.9151    0.0000 O.2     1  UNL1       -0.4576
     10 O           5.0597   -1.8623    0.0000 O.2     1  UNL1       -0.2885
     11 O           9.6975    4.7600    0.0000 O.2     1  UNL1       -0.2508
     12 O           5.1350   -2.9151    0.0000 O.3     1  UNL1       -0.3313
     13 O           6.8671   -4.9151    0.0000 O.3     1  UNL1       -0.3829
     14 O           5.1350   -5.9151    0.0000 O.3     1  UNL1       -0.3864
     15 O           3.4030   -4.9151    0.0000 O.3     1  UNL1       -0.3865
     16 O           2.5369   -3.4151    0.0000 O.3     1  UNL1       -0.3924
     17 C           8.7037    1.2401    0.0000 C.3     1  UNL1        0.0471
     18 C           8.6921    0.2402    0.0000 C.3     1  UNL1        0.0084
     19 C           9.5754    1.7301    0.0000 C.3     1  UNL1        0.0603
     20 C           7.7920   -0.2841    0.0000 C.3     1  UNL1       -0.0007
     21 C           7.8160    1.7851    0.0000 C.3     1  UNL1        0.1120
     22 C          10.4356    1.2201    0.0000 C.3     1  UNL1        0.2007
     23 C           6.8920    0.2402    0.0000 C.3     1  UNL1       -0.0187
     24 C           9.5523   -0.2698    0.0000 C.3     1  UNL1        0.0886
     25 C           9.1651    0.8348    0.0000 C.3     1  UNL1        0.0591
     26 C          10.4241    0.2202    0.0000 C.3     1  UNL1        0.1210
     27 C           6.9040    1.2818    0.0000 C.3     1  UNL1       -0.0108
     28 C           9.6196    2.7615    0.0000 C.3     1  UNL1        0.2056
     29 C           5.9421   -0.2841    0.0000 C.3     1  UNL1        0.0261
     30 C           8.4319   -1.0526    0.0000 C.3     1  UNL1       -0.0553
     31 C           7.8046   -1.3690    0.0000 C.2     1  UNL1       -0.0321
     32 C          11.4355    1.2085    0.0000 C.2     1  UNL1        0.3423
     33 C           8.7442    3.3088    0.0000 C.2     1  UNL1        0.3491
     34 C           5.9295   -1.3690    0.0000 C.2     1  UNL1        0.2002
     35 C           6.8671   -1.9151    0.0000 C.2     1  UNL1        0.1631
     36 C           5.0839    0.2292    0.0000 C.3     1  UNL1       -0.0550
     37 C          10.5434    4.2267    0.0000 C.2     1  UNL1        0.3081
     38 C          12.9455    2.0572    0.0000 C.3     1  UNL1        0.0818
     39 C           6.0010   -3.4151    0.0000 C.3     1  UNL1        0.2309
     40 C          11.4283    4.6925    0.0000 C.3     1  UNL1        0.0473
     41 C           6.0010   -4.4151    0.0000 C.3     1  UNL1        0.1454
     42 C          11.4672    5.6918    0.0000 C.3     1  UNL1       -0.0367
     43 C           5.1350   -4.9151    0.0000 C.3     1  UNL1        0.1152
     44 C           4.2690   -3.4151    0.0000 C.3     1  UNL1        0.1140
     45 C           4.2690   -4.4151    0.0000 C.3     1  UNL1        0.1120
     46 C          12.3521    6.1577    0.0000 C.3     1  UNL1       -0.0622
     47 C          10.6213    6.2251    0.0000 C.3     1  UNL1       -0.0622
     48 C           3.4030   -2.9151    0.0000 C.3     1  UNL1        0.0731
     49 H           8.6823   -0.6098    0.0000 H       1  UNL1        0.0342
     50 H           9.1590    2.4711    0.0000 H       1  UNL1        0.0384
     51 H           7.0883    2.2243    0.0000 H       1  UNL1        0.0740
     52 H           6.1625    0.6765    0.0000 H       1  UNL1        0.0317
     53 H          10.0856   -0.5860    0.0000 H       1  UNL1        0.0623
     54 H           8.6407    0.5040    0.0000 H       1  UNL1        0.0567
     55 H           9.3338    0.2382    0.0000 H       1  UNL1        0.0567
     56 H          10.9645    0.5239    0.0000 H       1  UNL1        0.0654
     57 H           6.7017    1.8678    0.0000 H       1  UNL1        0.0304
     58 H           6.2920    1.1827    0.0000 H       1  UNL1        0.0304
     59 H           9.6426    3.3811    0.0000 H       1  UNL1        0.0857
     60 H           5.4010   -0.5868    0.0000 H       1  UNL1        0.0382
     61 H           7.9554   -1.4493    0.0000 H       1  UNL1        0.0238
     62 H           8.8286   -1.5291    0.0000 H       1  UNL1        0.0238
     63 H           8.9084   -0.6559    0.0000 H       1  UNL1        0.0238
     64 H           8.3439   -1.6749    0.0000 H       1  UNL1        0.0615
     65 H          10.0741   -1.5859    0.0000 H       1  UNL1        0.2099
     66 H          11.2771   -0.9098    0.0000 H       1  UNL1        0.2100
     67 H           5.4021    0.7613    0.0000 H       1  UNL1        0.0237
     68 H           4.5518    0.5474    0.0000 H       1  UNL1        0.0237
     69 H           4.7656   -0.3029    0.0000 H       1  UNL1        0.0237
     70 H          12.9383    1.4372    0.0000 H       1  UNL1        0.0661
     71 H          13.5654    2.0500    0.0000 H       1  UNL1        0.0661
     72 H          12.9526    2.6771    0.0000 H       1  UNL1        0.0661
     73 H           6.0010   -2.7951    0.0000 H       1  UNL1        0.1084
     74 H          11.6175    4.1021    0.0000 H       1  UNL1        0.0380
     75 H          12.0426    4.7763    0.0000 H       1  UNL1        0.0380
     76 H           6.0010   -5.0351    0.0000 H       1  UNL1        0.0683
     77 H          11.9917    5.3611    0.0000 H       1  UNL1        0.0301
     78 H           4.5981   -5.2251    0.0000 H       1  UNL1        0.0648
     79 H           4.2690   -2.7951    0.0000 H       1  UNL1        0.0647
     80 H           3.7320   -4.1051    0.0000 H       1  UNL1        0.0647
     81 H          12.6409    5.6091    0.0000 H       1  UNL1        0.0232
     82 H          12.9007    6.4465    0.0000 H       1  UNL1        0.0232
     83 H          12.0632    6.7063    0.0000 H       1  UNL1        0.0232
     84 H          10.9520    6.7496    0.0000 H       1  UNL1        0.0232
     85 H          10.0969    6.5558    0.0000 H       1  UNL1        0.0232
     86 H          10.2906    5.7007    0.0000 H       1  UNL1        0.0232
     87 H           6.8671   -5.5351    0.0000 H       1  UNL1        0.2102
     88 H           3.8015   -2.4402    0.0000 H       1  UNL1        0.0584
     89 H           3.0044   -2.4402    0.0000 H       1  UNL1        0.0584
     90 H           4.5981   -6.2251    0.0000 H       1  UNL1        0.2100
     91 H           3.4030   -5.5351    0.0000 H       1  UNL1        0.2100
     92 H           2.0000   -3.1051    0.0000 H       1  UNL1        0.2095
@<TRIPOS>BOND
     1     1    22    1
     2     1    25    1
     3     2    21    1
     4     2    33    1
     5    24     3    1
     6     3    65    1
     7    26     4    1
     8     4    66    1
     9    28     5    1
    10     5    37    1
    11     6    32    1
    12     6    38    1
    13     7    32    2
    14     8    33    2
    15     9    35    1
    16    39     9    1
    17    10    34    2
    18    11    37    2
    19    12    39    1
    20    12    44    1
    21    41    13    1
    22    13    87    1
    23    43    14    1
    24    14    90    1
    25    45    15    1
    26    15    91    1
    27    16    48    1
    28    16    92    1
    29    17    18    1
    30    17    19    1
    31    17    21    1
    32    17    25    1
    33    18    20    1
    34    18    24    1
    35    18    49    1
    36    19    22    1
    37    19    28    1
    38    19    50    1
    39    20    23    1
    40    20    30    1
    41    20    31    1
    42    21    27    1
    43    21    51    1
    44    22    26    1
    45    22    32    1
    46    23    27    1
    47    23    29    1
    48    23    52    1
    49    24    26    1
    50    24    53    1
    51    25    54    1
    52    25    55    1
    53    26    56    1
    54    27    57    1
    55    27    58    1
    56    28    33    1
    57    28    59    1
    58    29    34    1
    59    29    36    1
    60    29    60    1
    61    30    61    1
    62    30    62    1
    63    30    63    1
    64    31    35    2
    65    31    64    1
    66    34    35    1
    67    36    67    1
    68    36    68    1
    69    36    69    1
    70    37    40    1
    71    38    70    1
    72    38    71    1
    73    38    72    1
    74    39    41    1
    75    39    73    1
    76    40    42    1
    77    40    74    1
    78    40    75    1
    79    41    43    1
    80    41    76    1
    81    42    46    1
    82    42    47    1
    83    42    77    1
    84    43    45    1
    85    43    78    1
    86    44    45    1
    87    44    48    1
    88    44    79    1
    89    45    80    1
    90    46    81    1
    91    46    82    1
    92    46    83    1
    93    47    84    1
    94    47    85    1
    95    47    86    1
    96    48    88    1
    97    48    89    1
