@<TRIPOS>MOLECULE
IMPHY009519
 24 25 0 0 0
SMALL
GASTEIGER

@<TRIPOS>ATOM
      1 O           4.6660   -1.5173    0.0000 O.2     1  UNL1       -0.2669
      2 O           8.1301   -0.5173    0.0000 O.3     1  UNL1       -0.3933
      3 N           5.5321   -0.0173    0.0000 N.ar    1  UNL1       -0.2965
      4 N           4.6660    1.4827    0.0000 N.ar    1  UNL1       -0.2370
      5 C           6.3981   -0.5173    0.0000 C.3     1  UNL1        0.0507
      6 C           3.8000   -0.0173    0.0000 C.ar    1  UNL1        0.0649
      7 C           4.6660   -0.5173    0.0000 C.ar    1  UNL1        0.2617
      8 C           3.8000    0.9827    0.0000 C.ar    1  UNL1        0.0778
      9 C           5.5321    0.9827    0.0000 C.ar    1  UNL1        0.0993
     10 C           7.2641   -0.0173    0.0000 C.3     1  UNL1        0.0622
     11 C           2.9061   -0.5520    0.0000 C.ar    1  UNL1       -0.0474
     12 C           2.9061    1.5173    0.0000 C.ar    1  UNL1       -0.0355
     13 C           2.0000   -0.0381    0.0000 C.ar    1  UNL1       -0.0609
     14 C           2.0000    1.0035    0.0000 C.ar    1  UNL1       -0.0597
     15 H           5.9996   -0.9923    0.0000 H       1  UNL1        0.0516
     16 H           6.7966   -0.9923    0.0000 H       1  UNL1        0.0516
     17 H           6.0690    1.2927    0.0000 H       1  UNL1        0.1030
     18 H           7.6626    0.4576    0.0000 H       1  UNL1        0.0575
     19 H           6.8656    0.4576    0.0000 H       1  UNL1        0.0575
     20 H           2.9132   -1.1720    0.0000 H       1  UNL1        0.0626
     21 H           2.9132    2.1373    0.0000 H       1  UNL1        0.0639
     22 H           1.4643   -0.3502    0.0000 H       1  UNL1        0.0618
     23 H           1.4643    1.3156    0.0000 H       1  UNL1        0.0618
     24 H           8.6671   -0.2073    0.0000 H       1  UNL1        0.2095
@<TRIPOS>BOND
     1     1     7    2
     2     2    10    1
     3     2    24    1
     4     3     5    1
     5     3     7   ar
     6     3     9   ar
     7     4     8   ar
     8     4     9   ar
     9     5    10    1
    10     5    15    1
    11     5    16    1
    12     6     7   ar
    13     6     8   ar
    14     6    11   ar
    15     8    12   ar
    16     9    17    1
    17    10    18    1
    18    10    19    1
    19    11    13   ar
    20    11    20    1
    21    12    14   ar
    22    12    21    1
    23    13    14   ar
    24    13    22    1
    25    14    23    1
