@<TRIPOS>MOLECULE
IMPHY013397
 44 48 0 0 0
SMALL
GASTEIGER

@<TRIPOS>ATOM
      1 O           5.1350   -1.5104    0.0000 O.3     1  UNL1       -0.4837
      2 O           6.0530    1.0380    0.0000 O.3     1  UNL1       -0.4879
      3 O           2.5369   -0.0104    0.0000 O.3     1  UNL1       -0.3863
      4 O           3.6127   -4.5902    0.0000 O.2     1  UNL1       -0.4628
      5 O           2.4125    3.1265    0.0000 O.3     1  UNL1       -0.4914
      6 O           4.2158    4.1863    0.0000 O.3     1  UNL1       -0.4913
      7 C           4.2690   -0.0104    0.0000 C.3     1  UNL1        0.0581
      8 C           5.1350   -0.5104    0.0000 C.3     1  UNL1        0.1435
      9 C           3.4030   -0.5104    0.0000 C.3     1  UNL1        0.0940
     10 C           4.2529    1.0311    0.0000 C.ar    1  UNL1        0.0075
     11 C           6.0450   -0.0036    0.0000 C.3     1  UNL1        0.1270
     12 C           3.4030   -1.5104    0.0000 C.ar    1  UNL1        0.0240
     13 C           4.2690   -2.0104    0.0000 C.ar    1  UNL1        0.1375
     14 C           5.1510    1.5588    0.0000 C.ar    1  UNL1        0.1280
     15 C           3.3010    1.5517    0.0000 C.ar    1  UNL1       -0.0092
     16 C           4.2850   -3.0519    0.0000 C.ar    1  UNL1        0.0621
     17 C           2.4930   -2.0173    0.0000 C.ar    1  UNL1       -0.0491
     18 C           5.1593    2.6438    0.0000 C.ar    1  UNL1        0.0257
     19 C           3.3870   -3.5797    0.0000 C.ar    1  UNL1        0.1383
     20 C           3.2843    2.6366    0.0000 C.ar    1  UNL1        0.1620
     21 C           2.4849   -3.0589    0.0000 C.ar    1  UNL1       -0.0182
     22 C           4.2197    3.1863    0.0000 C.ar    1  UNL1        0.1650
     23 C           5.0581   -3.7408    0.0000 C.ar    1  UNL1       -0.0126
     24 C           4.6434   -4.6896    0.0000 C.ar    1  UNL1        0.0932
     25 C           2.4010    4.1265    0.0000 C.3     1  UNL1        0.0790
     26 C           5.0799    4.6896    0.0000 C.3     1  UNL1        0.0790
     27 H           4.8035    0.3037    0.0000 H       1  UNL1        0.0416
     28 H           5.6695   -0.8245    0.0000 H       1  UNL1        0.0774
     29 H           3.4030    0.1096    0.0000 H       1  UNL1        0.0652
     30 H           6.2496   -0.5888    0.0000 H       1  UNL1        0.0734
     31 H           6.6567    0.0978    0.0000 H       1  UNL1        0.0734
     32 H           2.7701    1.2314    0.0000 H       1  UNL1        0.0659
     33 H           1.9596   -1.7011    0.0000 H       1  UNL1        0.0623
     34 H           2.0000   -0.3204    0.0000 H       1  UNL1        0.2103
     35 H           5.6974    2.9517    0.0000 H       1  UNL1        0.0692
     36 H           1.9468   -3.3668    0.0000 H       1  UNL1        0.0655
     37 H           5.6638   -3.6083    0.0000 H       1  UNL1        0.0656
     38 H           4.9575   -5.2242    0.0000 H       1  UNL1        0.1030
     39 H           3.0209    4.1336    0.0000 H       1  UNL1        0.0660
     40 H           2.3938    4.7464    0.0000 H       1  UNL1        0.0660
     41 H           1.7810    4.1193    0.0000 H       1  UNL1        0.0660
     42 H           5.3920    4.1539    0.0000 H       1  UNL1        0.0660
     43 H           5.6157    5.0017    0.0000 H       1  UNL1        0.0660
     44 H           4.7679    5.2254    0.0000 H       1  UNL1        0.0660
@<TRIPOS>BOND
     1     1     8    1
     2     1    13    1
     3     2    11    1
     4     2    14    1
     5     3     9    1
     6     3    34    1
     7     4    19   ar
     8     4    24   ar
     9     5    20    1
    10     5    25    1
    11     6    22    1
    12     6    26    1
    13     7     8    1
    14     7     9    1
    15     7    10    1
    16     7    27    1
    17     8    11    1
    18     8    28    1
    19     9    12    1
    20     9    29    1
    21    10    14   ar
    22    10    15   ar
    23    11    30    1
    24    11    31    1
    25    12    13   ar
    26    12    17   ar
    27    13    16   ar
    28    14    18   ar
    29    15    20   ar
    30    15    32    1
    31    16    19   ar
    32    16    23   ar
    33    17    21   ar
    34    17    33    1
    35    18    22   ar
    36    18    35    1
    37    19    21   ar
    38    20    22   ar
    39    21    36    1
    40    23    24   ar
    41    23    37    1
    42    24    38    1
    43    25    39    1
    44    25    40    1
    45    25    41    1
    46    26    42    1
    47    26    43    1
    48    26    44    1
