@<TRIPOS>MOLECULE
IMPHY004485
 95 100 0 0 0
SMALL
GASTEIGER

@<TRIPOS>ATOM
      1 O           8.5991   -2.7500    0.0000 O.3     1  UNL1       -0.3405
      2 O          10.3312   -2.7500    0.0000 O.3     1  UNL1       -0.3460
      3 O          11.1972   -0.2500    0.0000 O.3     1  UNL1       -0.3313
      4 O           6.8671   -1.7500    0.0000 O.3     1  UNL1       -0.3460
      5 O           5.1350   -1.7500    0.0000 O.3     1  UNL1       -0.3405
      6 O           6.8671   -4.7500    0.0000 O.3     1  UNL1       -0.3865
      7 O           8.5991   -5.7500    0.0000 O.3     1  UNL1       -0.3864
      8 O          10.3312   -4.7500    0.0000 O.3     1  UNL1       -0.3841
      9 O          12.0632   -2.7500    0.0000 O.3     1  UNL1       -0.3865
     10 O          13.7953   -1.7500    0.0000 O.3     1  UNL1       -0.3864
     11 O          12.0632    1.2500    0.0000 O.3     1  UNL1       -0.4532
     12 O           6.8671    0.2500    0.0000 O.3     1  UNL1       -0.3841
     13 O          13.7953    0.2500    0.0000 O.3     1  UNL1       -0.3829
     14 O           5.1350    1.2500    0.0000 O.3     1  UNL1       -0.3864
     15 O           3.4030    0.2500    0.0000 O.3     1  UNL1       -0.3865
     16 O           2.5369   -1.2500    0.0000 O.3     1  UNL1       -0.3924
     17 O          10.3312    3.2500    0.0000 O.2     1  UNL1       -0.4507
     18 O          10.3312    0.2500    0.0000 O.2     1  UNL1       -0.2830
     19 O           8.5828    0.2154    0.0000 O.3     1  UNL1       -0.5058
     20 O           6.8010    3.2742    0.0000 O.3     1  UNL1       -0.5065
     21 O          12.9292    5.7500    0.0000 O.3     1  UNL1       -0.5033
     22 O          14.6613    4.7500    0.0000 O.3     1  UNL1       -0.5033
     23 C           7.7331   -3.2500    0.0000 C.3     1  UNL1        0.1134
     24 C           7.7331   -4.2500    0.0000 C.3     1  UNL1        0.1119
     25 C           8.5991   -4.7500    0.0000 C.3     1  UNL1        0.1141
     26 C           9.4651   -4.2500    0.0000 C.3     1  UNL1        0.1341
     27 C           9.4651   -3.2500    0.0000 C.3     1  UNL1        0.1880
     28 C          11.1972   -1.2500    0.0000 C.3     1  UNL1        0.1144
     29 C          12.0632   -1.7500    0.0000 C.3     1  UNL1        0.1120
     30 C          12.9292   -1.2500    0.0000 C.3     1  UNL1        0.1152
     31 C           6.8671   -2.7500    0.0000 C.3     1  UNL1        0.0796
     32 C           6.0010   -1.2500    0.0000 C.3     1  UNL1        0.1880
     33 C           6.0010   -0.2500    0.0000 C.3     1  UNL1        0.1341
     34 C          12.9292   -0.2500    0.0000 C.3     1  UNL1        0.1454
     35 C          10.3312   -1.7500    0.0000 C.3     1  UNL1        0.0796
     36 C           5.1350    0.2500    0.0000 C.3     1  UNL1        0.1141
     37 C           4.2690   -0.2500    0.0000 C.3     1  UNL1        0.1119
     38 C           4.2690   -1.2500    0.0000 C.3     1  UNL1        0.1130
     39 C          12.0632    0.2500    0.0000 C.3     1  UNL1        0.2311
     40 C           3.4030   -1.7500    0.0000 C.3     1  UNL1        0.0730
     41 C          11.1972    1.7500    0.0000 C.ar    1  UNL1        0.2138
     42 C          11.1972    2.7500    0.0000 C.ar    1  UNL1        0.1810
     43 C          10.3312    1.2500    0.0000 C.ar    1  UNL1        0.2382
     44 C           9.4651    1.7500    0.0000 C.ar    1  UNL1        0.1092
     45 C          12.0632    3.2500    0.0000 C.ar    1  UNL1        0.0247
     46 C           9.4651    2.7500    0.0000 C.ar    1  UNL1        0.1465
     47 C           8.5712    1.2153    0.0000 C.ar    1  UNL1        0.1348
     48 C           8.5712    3.2847    0.0000 C.ar    1  UNL1        0.0231
     49 C          12.0632    4.2500    0.0000 C.ar    1  UNL1       -0.0057
     50 C          12.9292    2.7500    0.0000 C.ar    1  UNL1       -0.0473
     51 C           7.6651    1.7292    0.0000 C.ar    1  UNL1        0.0223
     52 C           7.6651    2.7708    0.0000 C.ar    1  UNL1        0.1239
     53 C          12.9292    4.7500    0.0000 C.ar    1  UNL1        0.1589
     54 C          13.7953    3.2500    0.0000 C.ar    1  UNL1       -0.0159
     55 C          13.7953    4.2500    0.0000 C.ar    1  UNL1        0.1583
     56 H           7.7331   -2.6300    0.0000 H       1  UNL1        0.0647
     57 H           7.7331   -4.8700    0.0000 H       1  UNL1        0.0647
     58 H           9.1360   -5.0600    0.0000 H       1  UNL1        0.0648
     59 H          10.0021   -3.9400    0.0000 H       1  UNL1        0.0671
     60 H           9.4651   -2.6300    0.0000 H       1  UNL1        0.0937
     61 H          10.6603   -0.9400    0.0000 H       1  UNL1        0.0647
     62 H          12.6002   -2.0600    0.0000 H       1  UNL1        0.0647
     63 H          13.4662   -0.9400    0.0000 H       1  UNL1        0.0648
     64 H           6.2565   -2.6423    0.0000 H       1  UNL1        0.0587
     65 H           6.6550   -3.3326    0.0000 H       1  UNL1        0.0587
     66 H           6.5380   -0.9400    0.0000 H       1  UNL1        0.0937
     67 H           6.0010    0.3700    0.0000 H       1  UNL1        0.0671
     68 H          12.9292    0.3700    0.0000 H       1  UNL1        0.0683
     69 H          10.1191   -1.1674    0.0000 H       1  UNL1        0.0587
     70 H           9.7206   -1.8577    0.0000 H       1  UNL1        0.0587
     71 H           4.5981    0.5600    0.0000 H       1  UNL1        0.0648
     72 H           4.8311    0.3700    0.0000 H       1  UNL1        0.0647
     73 H           4.2690   -1.8700    0.0000 H       1  UNL1        0.0647
     74 H          11.5263    0.5600    0.0000 H       1  UNL1        0.1084
     75 H           6.3301   -4.4400    0.0000 H       1  UNL1        0.2100
     76 H           3.0044   -2.2250    0.0000 H       1  UNL1        0.0584
     77 H           3.8015   -2.2250    0.0000 H       1  UNL1        0.0584
     78 H           8.0622   -6.0600    0.0000 H       1  UNL1        0.2100
     79 H          10.8681   -4.4400    0.0000 H       1  UNL1        0.2101
     80 H          12.6002   -3.0600    0.0000 H       1  UNL1        0.2100
     81 H          13.7953   -2.3700    0.0000 H       1  UNL1        0.2100
     82 H           6.8671    0.8700    0.0000 H       1  UNL1        0.2101
     83 H          14.3322   -0.0600    0.0000 H       1  UNL1        0.2102
     84 H           4.5981    1.5600    0.0000 H       1  UNL1        0.2100
     85 H           3.4030    0.8700    0.0000 H       1  UNL1        0.2100
     86 H           2.0000   -1.5600    0.0000 H       1  UNL1        0.2095
     87 H           8.5784    3.9046    0.0000 H       1  UNL1        0.0691
     88 H          11.5263    4.5600    0.0000 H       1  UNL1        0.0662
     89 H          12.9292    2.1300    0.0000 H       1  UNL1        0.0626
     90 H           7.1294    1.4171    0.0000 H       1  UNL1        0.0691
     91 H          14.3322    2.9400    0.0000 H       1  UNL1        0.0655
     92 H           8.0494   -0.1008    0.0000 H       1  UNL1        0.2922
     93 H           6.2629    2.9662    0.0000 H       1  UNL1        0.2921
     94 H          12.3923    6.0600    0.0000 H       1  UNL1        0.2923
     95 H          14.6613    5.3700    0.0000 H       1  UNL1        0.2923
@<TRIPOS>BOND
     1     1    23    1
     2     1    27    1
     3    27     2    1
     4     2    35    1
     5     3    28    1
     6     3    39    1
     7     4    31    1
     8    32     4    1
     9     5    32    1
    10     5    38    1
    11    24     6    1
    12     6    75    1
    13    25     7    1
    14     7    78    1
    15    26     8    1
    16     8    79    1
    17    29     9    1
    18     9    80    1
    19    30    10    1
    20    10    81    1
    21    39    11    1
    22    11    41    1
    23    33    12    1
    24    12    82    1
    25    34    13    1
    26    13    83    1
    27    36    14    1
    28    14    84    1
    29    37    15    1
    30    15    85    1
    31    16    40    1
    32    16    86    1
    33    17    42   ar
    34    17    46   ar
    35    18    43    2
    36    19    47    1
    37    19    92    1
    38    20    52    1
    39    20    93    1
    40    21    53    1
    41    21    94    1
    42    22    55    1
    43    22    95    1
    44    23    24    1
    45    23    31    1
    46    23    56    1
    47    24    25    1
    48    24    57    1
    49    25    26    1
    50    25    58    1
    51    26    27    1
    52    26    59    1
    53    27    60    1
    54    28    29    1
    55    28    35    1
    56    28    61    1
    57    29    30    1
    58    29    62    1
    59    30    34    1
    60    30    63    1
    61    31    64    1
    62    31    65    1
    63    32    33    1
    64    32    66    1
    65    33    36    1
    66    33    67    1
    67    34    39    1
    68    34    68    1
    69    35    69    1
    70    35    70    1
    71    36    37    1
    72    36    71    1
    73    37    38    1
    74    37    72    1
    75    38    40    1
    76    38    73    1
    77    39    74    1
    78    40    76    1
    79    40    77    1
    80    41    42   ar
    81    41    43   ar
    82    42    45    1
    83    43    44   ar
    84    44    46   ar
    85    44    47   ar
    86    45    49   ar
    87    45    50   ar
    88    46    48   ar
    89    47    51   ar
    90    48    52   ar
    91    48    87    1
    92    49    53   ar
    93    49    88    1
    94    50    54   ar
    95    50    89    1
    96    51    52   ar
    97    51    90    1
    98    53    55   ar
    99    54    55   ar
   100    54    91    1
