@<TRIPOS>MOLECULE
IMPHY012350
 23 22 0 0 0
SMALL
GASTEIGER

@<TRIPOS>ATOM
      1 O           2.5369    0.2500    0.0000 O.3     1  UNL1       -0.3825
      2 C           7.7331   -0.7500    0.0000 C.3     1  UNL1       -0.0525
      3 C           6.8671   -0.2500    0.0000 C.3     1  UNL1       -0.0422
      4 C           8.5991   -0.2500    0.0000 C.3     1  UNL1       -0.0559
      5 C           6.0010   -0.7500    0.0000 C.3     1  UNL1        0.0092
      6 C           9.4651   -0.7500    0.0000 C.3     1  UNL1       -0.0653
      7 C           5.1350   -0.2500    0.0000 C.1     1  UNL1       -0.0999
      8 C           4.2690    0.2500    0.0000 C.1     1  UNL1       -0.0743
      9 C           3.4030    0.7500    0.0000 C.3     1  UNL1        0.1048
     10 H           7.3346   -1.2250    0.0000 H       1  UNL1        0.0265
     11 H           8.1316   -1.2250    0.0000 H       1  UNL1        0.0265
     12 H           7.2656    0.2249    0.0000 H       1  UNL1        0.0274
     13 H           6.4685    0.2249    0.0000 H       1  UNL1        0.0274
     14 H           8.9976    0.2249    0.0000 H       1  UNL1        0.0263
     15 H           8.2006    0.2249    0.0000 H       1  UNL1        0.0263
     16 H           5.6025   -1.2250    0.0000 H       1  UNL1        0.0397
     17 H           6.3996   -1.2250    0.0000 H       1  UNL1        0.0397
     18 H           9.1551   -1.2869    0.0000 H       1  UNL1        0.0230
     19 H          10.0021   -1.0600    0.0000 H       1  UNL1        0.0230
     20 H           9.7751   -0.2131    0.0000 H       1  UNL1        0.0230
     21 H           3.8015    1.2250    0.0000 H       1  UNL1        0.0694
     22 H           3.0044    1.2250    0.0000 H       1  UNL1        0.0694
     23 H           2.0000    0.5600    0.0000 H       1  UNL1        0.2107
@<TRIPOS>BOND
     1     1     9    1
     2     1    23    1
     3     2     3    1
     4     2     4    1
     5     2    10    1
     6     2    11    1
     7     3     5    1
     8     3    12    1
     9     3    13    1
    10     4     6    1
    11     4    14    1
    12     4    15    1
    13     5     7    1
    14     5    16    1
    15     5    17    1
    16     6    18    1
    17     6    19    1
    18     6    20    1
    19     7     8    3
    20     8     9    1
    21     9    21    1
    22     9    22    1
