@<TRIPOS>MOLECULE
IMPHY014085
 48 47 0 0 0
SMALL
GASTEIGER

@<TRIPOS>ATOM
      1 O           3.7320   -0.7500    0.0000 O.3     1  UNL1       -0.4648
      2 O           2.8660   -2.2500    0.0000 O.2     1  UNL1       -0.2512
      3 C           8.0622   -1.2500    0.0000 C.3     1  UNL1       -0.0530
      4 C           7.1962   -0.7500    0.0000 C.3     1  UNL1       -0.0530
      5 C           8.9282   -0.7500    0.0000 C.3     1  UNL1       -0.0528
      6 C           6.3301   -1.2500    0.0000 C.3     1  UNL1       -0.0500
      7 C           9.7942   -1.2500    0.0000 C.3     1  UNL1       -0.0496
      8 C           5.4641   -0.7500    0.0000 C.3     1  UNL1       -0.0185
      9 C          10.6603   -0.7500    0.0000 C.3     1  UNL1       -0.0348
     10 C           4.5981   -1.2500    0.0000 C.3     1  UNL1        0.0924
     11 C          11.5263   -1.2500    0.0000 C.2     1  UNL1       -0.0879
     12 C          12.3923    0.2500    0.0000 C.3     1  UNL1       -0.0348
     13 C          13.2583    0.7500    0.0000 C.3     1  UNL1       -0.0499
     14 C          12.3923   -0.7500    0.0000 C.2     1  UNL1       -0.0879
     15 C          13.2583    1.7500    0.0000 C.3     1  UNL1       -0.0556
     16 C          14.1244    2.2500    0.0000 C.3     1  UNL1       -0.0653
     17 C           2.8660   -1.2500    0.0000 C.2     1  UNL1        0.3039
     18 C           2.0000   -0.7500    0.0000 C.3     1  UNL1        0.0332
     19 H           7.6636   -1.7250    0.0000 H       1  UNL1        0.0265
     20 H           8.4607   -1.7250    0.0000 H       1  UNL1        0.0265
     21 H           7.5947   -0.2751    0.0000 H       1  UNL1        0.0265
     22 H           6.7976   -0.2751    0.0000 H       1  UNL1        0.0265
     23 H           9.3267   -0.2751    0.0000 H       1  UNL1        0.0265
     24 H           8.5297   -0.2751    0.0000 H       1  UNL1        0.0265
     25 H           5.9316   -1.7250    0.0000 H       1  UNL1        0.0266
     26 H           6.7287   -1.7250    0.0000 H       1  UNL1        0.0266
     27 H           9.3957   -1.7250    0.0000 H       1  UNL1        0.0268
     28 H          10.1928   -1.7250    0.0000 H       1  UNL1        0.0268
     29 H           5.8626   -0.2751    0.0000 H       1  UNL1        0.0298
     30 H           5.0656   -0.2751    0.0000 H       1  UNL1        0.0298
     31 H          11.0588   -0.2751    0.0000 H       1  UNL1        0.0307
     32 H          10.2617   -0.2751    0.0000 H       1  UNL1        0.0307
     33 H           4.1996   -1.7250    0.0000 H       1  UNL1        0.0697
     34 H           4.9966   -1.7250    0.0000 H       1  UNL1        0.0697
     35 H          11.5263   -1.8700    0.0000 H       1  UNL1        0.0569
     36 H          12.1803    0.8326    0.0000 H       1  UNL1        0.0307
     37 H          11.7817    0.1423    0.0000 H       1  UNL1        0.0307
     38 H          13.4704    0.1674    0.0000 H       1  UNL1        0.0268
     39 H          13.8689    0.8577    0.0000 H       1  UNL1        0.0268
     40 H          12.9292   -1.0600    0.0000 H       1  UNL1        0.0569
     41 H          13.0463    2.3326    0.0000 H       1  UNL1        0.0263
     42 H          12.6477    1.6423    0.0000 H       1  UNL1        0.0263
     43 H          14.4344    1.7131    0.0000 H       1  UNL1        0.0230
     44 H          14.6613    2.5600    0.0000 H       1  UNL1        0.0230
     45 H          13.8144    2.7869    0.0000 H       1  UNL1        0.0230
     46 H           2.3100   -0.2131    0.0000 H       1  UNL1        0.0342
     47 H           1.4631   -0.4400    0.0000 H       1  UNL1        0.0342
     48 H           1.6900   -1.2869    0.0000 H       1  UNL1        0.0342
@<TRIPOS>BOND
     1     1    10    1
     2     1    17    1
     3     2    17    2
     4     3     4    1
     5     3     5    1
     6     3    19    1
     7     3    20    1
     8     4     6    1
     9     4    21    1
    10     4    22    1
    11     5     7    1
    12     5    23    1
    13     5    24    1
    14     6     8    1
    15     6    25    1
    16     6    26    1
    17     7     9    1
    18     7    27    1
    19     7    28    1
    20     8    10    1
    21     8    29    1
    22     8    30    1
    23     9    11    1
    24     9    31    1
    25     9    32    1
    26    10    33    1
    27    10    34    1
    28    11    14    2
    29    11    35    1
    30    12    13    1
    31    12    14    1
    32    12    36    1
    33    12    37    1
    34    13    15    1
    35    13    38    1
    36    13    39    1
    37    14    40    1
    38    15    16    1
    39    15    41    1
    40    15    42    1
    41    16    43    1
    42    16    44    1
    43    16    45    1
    44    17    18    1
    45    18    46    1
    46    18    47    1
    47    18    48    1
