@<TRIPOS>MOLECULE
IMPHY000812
 86 90 0 0 0
SMALL
GASTEIGER

@<TRIPOS>ATOM
      1 S           3.8533   -3.6712    0.0000 S.O2    1  UNL1        0.2075
      2 O           2.5357   -1.0254    0.0000 O.3     1  UNL1       -0.3912
      3 O           4.3500   -2.8033    0.0000 O.3     1  UNL1       -0.2152
      4 O          11.4608    2.0611    0.0000 O.3     1  UNL1       -0.4802
      5 O          10.6064    0.5544    0.0000 O.2     1  UNL1       -0.2504
      6 O           3.3567   -4.5392    0.0000 O.3     1  UNL1       -0.2311
      7 O           4.7213   -4.1679    0.0000 O.2     1  UNL1       -0.1181
      8 O           2.9854   -3.1746    0.0000 O.2     1  UNL1       -0.1181
      9 C           7.0628    0.5269    0.0000 C.3     1  UNL1       -0.0194
     10 C           6.1968    1.0269    0.0000 C.3     1  UNL1       -0.0257
     11 C           5.2868    0.5201    0.0000 C.3     1  UNL1       -0.0249
     12 C           7.9288    1.0269    0.0000 C.3     1  UNL1       -0.0051
     13 C           5.2787   -0.5215    0.0000 C.3     1  UNL1       -0.0254
     14 C           7.0789   -0.5146    0.0000 C.3     1  UNL1       -0.0463
     15 C           6.1808   -1.0424    0.0000 C.3     1  UNL1       -0.0485
     16 C           4.3433   -1.0713    0.0000 C.3     1  UNL1        0.0229
     17 C           7.9288    2.0269    0.0000 C.2     1  UNL1       -0.0629
     18 C           8.8228    2.5616    0.0000 C.3     1  UNL1       -0.0031
     19 C           6.1968    2.0269    0.0000 C.3     1  UNL1       -0.0306
     20 C           4.3599    1.0841    0.0000 C.3     1  UNL1       -0.0447
     21 C           8.8228    0.4922    0.0000 C.3     1  UNL1       -0.0424
     22 C           9.7288    2.0477    0.0000 C.3     1  UNL1        0.0741
     23 C           7.7056   -0.2391    0.0000 C.3     1  UNL1       -0.0585
     24 C           9.7288    1.0061    0.0000 C.3     1  UNL1       -0.0359
     25 C           3.4037   -0.5288    0.0000 C.3     1  UNL1        0.0631
     26 C           5.2945    1.5200    0.0000 C.3     1  UNL1       -0.0590
     27 C           7.0628    2.5269    0.0000 C.2     1  UNL1       -0.0836
     28 C           3.4120    0.5562    0.0000 C.3     1  UNL1       -0.0257
     29 C           8.2709    0.0872    0.0000 C.3     1  UNL1       -0.0553
     30 C           8.7977    3.6463    0.0000 C.3     1  UNL1       -0.0403
     31 C          10.6726    2.5830    0.0000 C.3     1  UNL1       -0.0362
     32 C           9.7288    4.2032    0.0000 C.3     1  UNL1       -0.0343
     33 C           3.8467   -1.9392    0.0000 C.3     1  UNL1        0.0868
     34 C           4.8466   -1.9354    0.0000 C.3     1  UNL1       -0.0547
     35 C          10.6726    3.6680    0.0000 C.3     1  UNL1       -0.0468
     36 C          10.5987    1.5544    0.0000 C.2     1  UNL1        0.3115
     37 C          10.2188    5.0749    0.0000 C.3     1  UNL1       -0.0598
     38 C           9.2188    5.0634    0.0000 C.3     1  UNL1       -0.0598
     39 H           6.9329    1.4519    0.0000 H       1  UNL1        0.0315
     40 H           5.2820   -1.3715    0.0000 H       1  UNL1        0.0313
     41 H           7.2969   -1.0950    0.0000 H       1  UNL1        0.0271
     42 H           7.6880   -0.3991    0.0000 H       1  UNL1        0.0271
     43 H           5.7835   -1.5183    0.0000 H       1  UNL1        0.0268
     44 H           6.5818   -1.5152    0.0000 H       1  UNL1        0.0268
     45 H           9.5522    2.9979    0.0000 H       1  UNL1        0.0357
     46 H           5.9847    2.6095    0.0000 H       1  UNL1        0.0310
     47 H           5.5862    1.9192    0.0000 H       1  UNL1        0.0310
     48 H           4.7681    1.5508    0.0000 H       1  UNL1        0.0271
     49 H           3.9700    1.5662    0.0000 H       1  UNL1        0.0271
     50 H           8.4182    0.0225    0.0000 H       1  UNL1        0.0274
     51 H           9.2164    0.0132    0.0000 H       1  UNL1        0.0274
     52 H           7.2306   -0.6377    0.0000 H       1  UNL1        0.0235
     53 H           8.1041   -0.7141    0.0000 H       1  UNL1        0.0235
     54 H           8.1805    0.1594    0.0000 H       1  UNL1        0.0235
     55 H           9.9379    0.4224    0.0000 H       1  UNL1        0.0276
     56 H          10.3397    1.1122    0.0000 H       1  UNL1        0.0276
     57 H           3.4025   -1.1488    0.0000 H       1  UNL1        0.0599
     58 H           5.9145    1.5152    0.0000 H       1  UNL1        0.0235
     59 H           5.2993    2.1400    0.0000 H       1  UNL1        0.0235
     60 H           4.6745    1.5248    0.0000 H       1  UNL1        0.0235
     61 H           7.0628    3.1469    0.0000 H       1  UNL1        0.0572
     62 H           3.2075    1.1415    0.0000 H       1  UNL1        0.0290
     63 H           2.8004    0.4548    0.0000 H       1  UNL1        0.0290
     64 H           7.6884   -0.1249    0.0000 H       1  UNL1        0.0238
     65 H           8.4830   -0.4953    0.0000 H       1  UNL1        0.0238
     66 H           8.8535    0.2994    0.0000 H       1  UNL1        0.0238
     67 H           8.5752    4.2250    0.0000 H       1  UNL1        0.0276
     68 H           8.1894    3.5261    0.0000 H       1  UNL1        0.0276
     69 H          10.8817    1.9993    0.0000 H       1  UNL1        0.0276
     70 H          11.2835    2.6890    0.0000 H       1  UNL1        0.0276
     71 H           3.3702   -1.5425    0.0000 H       1  UNL1        0.0591
     72 H           3.3732   -2.3396    0.0000 H       1  UNL1        0.0591
     73 H           4.3109   -2.2474    0.0000 H       1  UNL1        0.0237
     74 H           5.1587   -2.4711    0.0000 H       1  UNL1        0.0237
     75 H           5.3824   -1.6233    0.0000 H       1  UNL1        0.0237
     76 H          11.2835    3.5619    0.0000 H       1  UNL1        0.0271
     77 H          10.8817    4.2516    0.0000 H       1  UNL1        0.0271
     78 H           2.0000   -0.7134    0.0000 H       1  UNL1        0.2098
     79 H           9.7522    5.3796    0.0000 H       1  UNL1        0.0235
     80 H           8.9027    5.5967    0.0000 H       1  UNL1        0.0235
     81 H           8.6855    4.7472    0.0000 H       1  UNL1        0.0235
     82 H          10.7593    4.7712    0.0000 H       1  UNL1        0.0235
     83 H          10.5226    5.6154    0.0000 H       1  UNL1        0.0235
     84 H           9.6783    5.3787    0.0000 H       1  UNL1        0.0235
     85 H          12.0001    1.7552    0.0000 H       1  UNL1        0.2951
     86 H           3.6687   -5.0749    0.0000 H       1  UNL1        0.2469
@<TRIPOS>BOND
     1     1     3    1
     2     1     6    1
     3     1     7    2
     4     1     8    2
     5    25     2    1
     6     2    78    1
     7     3    33    1
     8     4    36    1
     9     4    85    1
    10     5    36    2
    11     6    86    1
    12     9    10    1
    13     9    12    1
    14     9    14    1
    15     9    23    1
    16    10    11    1
    17    10    19    1
    18    10    39    1
    19    11    13    1
    20    11    20    1
    21    11    26    1
    22    12    17    1
    23    12    21    1
    24    12    29    1
    25    13    15    1
    26    13    16    1
    27    13    40    1
    28    14    15    1
    29    14    41    1
    30    14    42    1
    31    15    43    1
    32    15    44    1
    33    16    25    1
    34    16    33    1
    35    16    34    1
    36    17    18    1
    37    17    27    2
    38    18    22    1
    39    18    30    1
    40    18    45    1
    41    19    27    1
    42    19    46    1
    43    19    47    1
    44    20    28    1
    45    20    48    1
    46    20    49    1
    47    21    24    1
    48    21    50    1
    49    21    51    1
    50    22    24    1
    51    22    31    1
    52    22    36    1
    53    23    52    1
    54    23    53    1
    55    23    54    1
    56    24    55    1
    57    24    56    1
    58    25    28    1
    59    25    57    1
    60    26    58    1
    61    26    59    1
    62    26    60    1
    63    27    61    1
    64    28    62    1
    65    28    63    1
    66    29    64    1
    67    29    65    1
    68    29    66    1
    69    30    32    1
    70    30    67    1
    71    30    68    1
    72    31    35    1
    73    31    69    1
    74    31    70    1
    75    32    35    1
    76    32    37    1
    77    32    38    1
    78    33    71    1
    79    33    72    1
    80    34    73    1
    81    34    74    1
    82    34    75    1
    83    35    76    1
    84    35    77    1
    85    37    82    1
    86    37    83    1
    87    37    84    1
    88    38    79    1
    89    38    80    1
    90    38    81    1
