@<TRIPOS>MOLECULE
IMPHY008156
 43 45 0 0 0
SMALL
GASTEIGER

@<TRIPOS>ATOM
      1 O           6.3981    0.0000    0.0000 O.2     1  UNL1       -0.4508
      2 O           8.1301    2.0000    0.0000 O.3     1  UNL1       -0.4883
      3 O           8.9962   -2.5000    0.0000 O.3     1  UNL1       -0.4914
      4 O           2.8680   -0.0241    0.0000 O.3     1  UNL1       -0.4950
      5 O           6.3981    3.0000    0.0000 O.2     1  UNL1       -0.2831
      6 O          10.7282   -1.5000    0.0000 O.3     1  UNL1       -0.4915
      7 C           7.2641    0.5000    0.0000 C.ar    1  UNL1        0.1809
      8 C           5.5320    1.5000    0.0000 C.ar    1  UNL1        0.0679
      9 C           5.5320    0.5000    0.0000 C.ar    1  UNL1        0.1430
     10 C           8.1301    0.0000    0.0000 C.ar    1  UNL1        0.0247
     11 C           7.2641    1.5000    0.0000 C.ar    1  UNL1        0.2105
     12 C           6.3981    2.0000    0.0000 C.ar    1  UNL1        0.2345
     13 C           4.6381   -0.0347    0.0000 C.ar    1  UNL1        0.0231
     14 C           4.6381    2.0347    0.0000 C.ar    1  UNL1       -0.0438
     15 C           8.1301   -1.0000    0.0000 C.ar    1  UNL1       -0.0055
     16 C           8.9962    0.5000    0.0000 C.ar    1  UNL1       -0.0473
     17 C           3.7320    0.4792    0.0000 C.ar    1  UNL1        0.1236
     18 C           8.9962   -1.5000    0.0000 C.ar    1  UNL1        0.1622
     19 C           3.7320    1.5208    0.0000 C.ar    1  UNL1       -0.0190
     20 C           9.8622   -1.0000    0.0000 C.ar    1  UNL1        0.1615
     21 C           9.8622   -0.0000    0.0000 C.ar    1  UNL1       -0.0156
     22 C           8.1301    3.0000    0.0000 C.3     1  UNL1        0.0791
     23 C           9.8622   -3.0000    0.0000 C.3     1  UNL1        0.0790
     24 C           2.0000    0.4725    0.0000 C.3     1  UNL1        0.0788
     25 C          11.5942   -1.0000    0.0000 C.3     1  UNL1        0.0790
     26 H           4.6453   -0.6546    0.0000 H       1  UNL1        0.0691
     27 H           7.5932   -1.3100    0.0000 H       1  UNL1        0.0662
     28 H           4.6453    2.6546    0.0000 H       1  UNL1        0.0627
     29 H           8.9962    1.1200    0.0000 H       1  UNL1        0.0626
     30 H           3.1963    1.8329    0.0000 H       1  UNL1        0.0654
     31 H          10.3991    0.3100    0.0000 H       1  UNL1        0.0655
     32 H           8.7501    3.0000    0.0000 H       1  UNL1        0.0660
     33 H           8.1301    3.6200    0.0000 H       1  UNL1        0.0660
     34 H           7.5101    3.0000    0.0000 H       1  UNL1        0.0660
     35 H           9.5522   -3.5369    0.0000 H       1  UNL1        0.0660
     36 H          10.3991   -3.3100    0.0000 H       1  UNL1        0.0660
     37 H          10.1722   -2.4631    0.0000 H       1  UNL1        0.0660
     38 H           2.3079    1.0106    0.0000 H       1  UNL1        0.0660
     39 H           1.4619    0.7804    0.0000 H       1  UNL1        0.0660
     40 H           1.6921   -0.0656    0.0000 H       1  UNL1        0.0660
     41 H          11.9042   -1.5369    0.0000 H       1  UNL1        0.0660
     42 H          12.1312   -0.6900    0.0000 H       1  UNL1        0.0660
     43 H          11.2842   -0.4631    0.0000 H       1  UNL1        0.0660
@<TRIPOS>BOND
     1     1     7   ar
     2     1     9   ar
     3     2    11    1
     4     2    22    1
     5     3    18    1
     6     3    23    1
     7     4    17    1
     8     4    24    1
     9     5    12    2
    10     6    20    1
    11     6    25    1
    12     7    10    1
    13     7    11   ar
    14     8     9   ar
    15     8    12   ar
    16     8    14   ar
    17     9    13   ar
    18    10    15   ar
    19    10    16   ar
    20    11    12   ar
    21    13    17   ar
    22    13    26    1
    23    14    19   ar
    24    14    28    1
    25    15    18   ar
    26    15    27    1
    27    16    21   ar
    28    16    29    1
    29    17    19   ar
    30    18    20   ar
    31    19    30    1
    32    20    21   ar
    33    21    31    1
    34    22    32    1
    35    22    33    1
    36    22    34    1
    37    23    35    1
    38    23    36    1
    39    23    37    1
    40    24    38    1
    41    24    39    1
    42    24    40    1
    43    25    41    1
    44    25    42    1
    45    25    43    1
