@<TRIPOS>MOLECULE
IMPHY005004
 32 34 0 0 0
SMALL
GASTEIGER

@<TRIPOS>ATOM
      1 O           6.3580   -2.2419    0.0000 O.2     1  UNL1       -0.4220
      2 O           2.8660   -0.2072    0.0000 O.3     1  UNL1       -0.4914
      3 O           2.8660   -2.2072    0.0000 O.3     1  UNL1       -0.5032
      4 O           8.1282   -2.2314    0.0000 O.2     1  UNL1       -0.2452
      5 C           5.4641   -0.7072    0.0000 C.ar    1  UNL1        0.0290
      6 C           6.3580   -0.1726    0.0000 C.ar    1  UNL1       -0.0003
      7 C           5.4641   -1.7072    0.0000 C.ar    1  UNL1        0.1433
      8 C           6.3465    0.8274    0.0000 C.ar    1  UNL1       -0.0170
      9 C           4.5981   -0.2072    0.0000 C.ar    1  UNL1       -0.0051
     10 C           7.2641   -0.6864    0.0000 C.ar    1  UNL1        0.0313
     11 C           3.7320   -0.7072    0.0000 C.ar    1  UNL1        0.1621
     12 C           4.5981   -2.2072    0.0000 C.ar    1  UNL1        0.0265
     13 C           3.7320   -1.7072    0.0000 C.ar    1  UNL1        0.1620
     14 C           7.2641   -1.7280    0.0000 C.ar    1  UNL1        0.3378
     15 C           7.2067    1.3373    0.0000 C.ar    1  UNL1       -0.0540
     16 C           5.4747    1.3173    0.0000 C.ar    1  UNL1       -0.0540
     17 C           7.1951    2.3373    0.0000 C.ar    1  UNL1       -0.0612
     18 C           5.4632    2.3172    0.0000 C.ar    1  UNL1       -0.0612
     19 C           6.3233    2.8272    0.0000 C.ar    1  UNL1       -0.0617
     20 C           2.0000   -0.7072    0.0000 C.3     1  UNL1        0.0790
     21 H           4.5981    0.4128    0.0000 H       1  UNL1        0.0662
     22 H           7.7998   -0.3743    0.0000 H       1  UNL1        0.0695
     23 H           4.5981   -2.8272    0.0000 H       1  UNL1        0.0692
     24 H           7.7472    1.0336    0.0000 H       1  UNL1        0.0624
     25 H           4.9414    1.0011    0.0000 H       1  UNL1        0.0624
     26 H           7.7284    2.6535    0.0000 H       1  UNL1        0.0618
     27 H           4.9227    2.6210    0.0000 H       1  UNL1        0.0618
     28 H           6.3162    3.4472    0.0000 H       1  UNL1        0.0618
     29 H           2.8660   -2.8272    0.0000 H       1  UNL1        0.2923
     30 H           1.6900   -0.1703    0.0000 H       1  UNL1        0.0660
     31 H           1.4631   -1.0172    0.0000 H       1  UNL1        0.0660
     32 H           2.3100   -1.2442    0.0000 H       1  UNL1        0.0660
@<TRIPOS>BOND
     1     1     7   ar
     2     1    14   ar
     3     2    11    1
     4     2    20    1
     5     3    13    1
     6     3    29    1
     7     4    14    2
     8     5     6   ar
     9     5     7   ar
    10     5     9   ar
    11     6     8    1
    12     6    10   ar
    13     7    12   ar
    14     8    15   ar
    15     8    16   ar
    16     9    11   ar
    17     9    21    1
    18    10    14   ar
    19    10    22    1
    20    11    13   ar
    21    12    13   ar
    22    12    23    1
    23    15    17   ar
    24    15    24    1
    25    16    18   ar
    26    16    25    1
    27    17    19   ar
    28    17    26    1
    29    18    19   ar
    30    18    27    1
    31    19    28    1
    32    20    30    1
    33    20    31    1
    34    20    32    1
