@<TRIPOS>MOLECULE
IMPHY016285
 36 35 0 0 0
SMALL
GASTEIGER

@<TRIPOS>ATOM
      1 C           7.1962    0.7500    0.0000 C.3     1  UNL1       -0.0320
      2 C           5.4641    0.7500    0.0000 C.3     1  UNL1       -0.0320
      3 C           8.0622    0.2500    0.0000 C.3     1  UNL1       -0.0494
      4 C           4.5981    0.2500    0.0000 C.3     1  UNL1       -0.0494
      5 C           6.3301    0.2500    0.0000 C.2     1  UNL1       -0.0766
      6 C           8.9282    0.7500    0.0000 C.3     1  UNL1       -0.0530
      7 C           3.7320    0.7500    0.0000 C.3     1  UNL1       -0.0530
      8 C           9.7942    0.2500    0.0000 C.3     1  UNL1       -0.0559
      9 C           2.8660    0.2500    0.0000 C.3     1  UNL1       -0.0559
     10 C           6.3301   -0.7500    0.0000 C.2     1  UNL1       -0.0994
     11 C          10.6603    0.7500    0.0000 C.3     1  UNL1       -0.0653
     12 C           2.0000    0.7500    0.0000 C.3     1  UNL1       -0.0653
     13 H           7.5947    1.2250    0.0000 H       1  UNL1        0.0310
     14 H           6.7976    1.2250    0.0000 H       1  UNL1        0.0310
     15 H           5.8626    1.2250    0.0000 H       1  UNL1        0.0310
     16 H           5.0656    1.2250    0.0000 H       1  UNL1        0.0310
     17 H           7.6636   -0.2249    0.0000 H       1  UNL1        0.0268
     18 H           8.4607   -0.2249    0.0000 H       1  UNL1        0.0268
     19 H           4.1996   -0.2249    0.0000 H       1  UNL1        0.0268
     20 H           4.9966   -0.2249    0.0000 H       1  UNL1        0.0268
     21 H           9.3267    1.2250    0.0000 H       1  UNL1        0.0265
     22 H           8.5297    1.2250    0.0000 H       1  UNL1        0.0265
     23 H           4.1306    1.2250    0.0000 H       1  UNL1        0.0265
     24 H           3.3335    1.2250    0.0000 H       1  UNL1        0.0265
     25 H           9.3957   -0.2249    0.0000 H       1  UNL1        0.0263
     26 H          10.1928   -0.2249    0.0000 H       1  UNL1        0.0263
     27 H           2.4675   -0.2249    0.0000 H       1  UNL1        0.0263
     28 H           3.2646   -0.2249    0.0000 H       1  UNL1        0.0263
     29 H           5.7932   -1.0600    0.0000 H       1  UNL1        0.0534
     30 H           6.8671   -1.0600    0.0000 H       1  UNL1        0.0534
     31 H          10.9703    0.2131    0.0000 H       1  UNL1        0.0230
     32 H          11.1972    1.0600    0.0000 H       1  UNL1        0.0230
     33 H          10.3503    1.2869    0.0000 H       1  UNL1        0.0230
     34 H           2.3100    1.2869    0.0000 H       1  UNL1        0.0230
     35 H           1.4631    1.0600    0.0000 H       1  UNL1        0.0230
     36 H           1.6900    0.2131    0.0000 H       1  UNL1        0.0230
@<TRIPOS>BOND
     1     1     3    1
     2     1     5    1
     3     1    13    1
     4     1    14    1
     5     2     4    1
     6     2     5    1
     7     2    15    1
     8     2    16    1
     9     3     6    1
    10     3    17    1
    11     3    18    1
    12     4     7    1
    13     4    19    1
    14     4    20    1
    15     5    10    2
    16     6     8    1
    17     6    21    1
    18     6    22    1
    19     7     9    1
    20     7    23    1
    21     7    24    1
    22     8    11    1
    23     8    25    1
    24     8    26    1
    25     9    12    1
    26     9    27    1
    27     9    28    1
    28    10    29    1
    29    10    30    1
    30    11    31    1
    31    11    32    1
    32    11    33    1
    33    12    34    1
    34    12    35    1
    35    12    36    1
