@<TRIPOS>MOLECULE
IMPHY015341
 23 23 0 0 0
SMALL
GASTEIGER

@<TRIPOS>ATOM
      1 O           2.5369   -2.2500    0.0000 O.2     1  UNL1       -0.2957
      2 C           4.2690    1.7500    0.0000 C.3     1  UNL1       -0.0215
      3 C           4.2690    0.7500    0.0000 C.ar    1  UNL1       -0.0441
      4 C           5.1350    2.2500    0.0000 C.3     1  UNL1       -0.0586
      5 C           3.4030    2.2500    0.0000 C.3     1  UNL1       -0.0586
      6 C           3.4030    0.2500    0.0000 C.ar    1  UNL1       -0.0481
      7 C           5.1350    0.2500    0.0000 C.ar    1  UNL1       -0.0583
      8 C           3.4030   -0.7500    0.0000 C.ar    1  UNL1        0.0144
      9 C           5.1350   -0.7500    0.0000 C.ar    1  UNL1       -0.0608
     10 C           4.2690   -1.2500    0.0000 C.ar    1  UNL1       -0.0515
     11 C           2.5369   -1.2500    0.0000 C.2     1  UNL1        0.1502
     12 H           4.2690    2.3700    0.0000 H       1  UNL1        0.0343
     13 H           5.4450    1.7131    0.0000 H       1  UNL1        0.0235
     14 H           5.6720    2.5600    0.0000 H       1  UNL1        0.0235
     15 H           4.8250    2.7869    0.0000 H       1  UNL1        0.0235
     16 H           3.7130    2.7869    0.0000 H       1  UNL1        0.0235
     17 H           2.8660    2.5600    0.0000 H       1  UNL1        0.0235
     18 H           3.0930    1.7131    0.0000 H       1  UNL1        0.0235
     19 H           2.8660    0.5600    0.0000 H       1  UNL1        0.0627
     20 H           5.6720    0.5600    0.0000 H       1  UNL1        0.0620
     21 H           5.6720   -1.0600    0.0000 H       1  UNL1        0.0618
     22 H           4.2690   -1.8700    0.0000 H       1  UNL1        0.0624
     23 H           2.0000   -0.9400    0.0000 H       1  UNL1        0.1081
@<TRIPOS>BOND
     1     1    11    2
     2     2     3    1
     3     2     4    1
     4     2     5    1
     5     2    12    1
     6     3     6   ar
     7     3     7   ar
     8     4    13    1
     9     4    14    1
    10     4    15    1
    11     5    16    1
    12     5    17    1
    13     5    18    1
    14     6     8   ar
    15     6    19    1
    16     7     9   ar
    17     7    20    1
    18     8    10   ar
    19     8    11    1
    20     9    10   ar
    21     9    21    1
    22    10    22    1
    23    11    23    1
