@<TRIPOS>MOLECULE
IMPHY015230
 20 20 0 0 0
SMALL
GASTEIGER

@<TRIPOS>ATOM
      1 O           4.5981    2.2500    0.0000 O.2     1  UNL1       -0.2957
      2 C           2.8660    0.2500    0.0000 C.ar    1  UNL1       -0.0400
      3 C           3.7320   -1.2500    0.0000 C.ar    1  UNL1       -0.0502
      4 C           3.7320    0.7500    0.0000 C.ar    1  UNL1        0.0171
      5 C           2.8660   -0.7500    0.0000 C.ar    1  UNL1       -0.0553
      6 C           4.5981   -0.7500    0.0000 C.ar    1  UNL1       -0.0582
      7 C           4.5981    0.2500    0.0000 C.ar    1  UNL1       -0.0510
      8 C           2.0000    0.7500    0.0000 C.3     1  UNL1       -0.0390
      9 C           3.7320   -2.2500    0.0000 C.3     1  UNL1       -0.0397
     10 C           3.7320    1.7500    0.0000 C.2     1  UNL1        0.1505
     11 H           2.3291   -1.0600    0.0000 H       1  UNL1        0.0623
     12 H           5.1350   -1.0600    0.0000 H       1  UNL1        0.0620
     13 H           5.1350    0.5600    0.0000 H       1  UNL1        0.0625
     14 H           2.3100    1.2869    0.0000 H       1  UNL1        0.0278
     15 H           1.4631    1.0600    0.0000 H       1  UNL1        0.0278
     16 H           1.6900    0.2131    0.0000 H       1  UNL1        0.0278
     17 H           3.1120   -2.2500    0.0000 H       1  UNL1        0.0278
     18 H           3.7320   -2.8700    0.0000 H       1  UNL1        0.0278
     19 H           4.3520   -2.2500    0.0000 H       1  UNL1        0.0278
     20 H           3.1951    2.0600    0.0000 H       1  UNL1        0.1081
@<TRIPOS>BOND
     1     1    10    2
     2     2     4   ar
     3     2     5   ar
     4     2     8    1
     5     3     5   ar
     6     3     6   ar
     7     3     9    1
     8     4     7   ar
     9     4    10    1
    10     5    11    1
    11     6     7   ar
    12     6    12    1
    13     7    13    1
    14     8    14    1
    15     8    15    1
    16     8    16    1
    17     9    17    1
    18     9    18    1
    19     9    19    1
    20    10    20    1
