@<TRIPOS>MOLECULE
IMPHY008707
 33 35 0 0 0
SMALL
GASTEIGER

@<TRIPOS>ATOM
      1 O           5.5301   -1.4279    0.0000 O.2     1  UNL1       -0.4618
      2 O           3.7817    1.6067    0.0000 O.3     1  UNL1       -0.5058
      3 O           5.5301    1.5721    0.0000 O.2     1  UNL1       -0.2863
      4 O           9.8602    2.0721    0.0000 O.3     1  UNL1       -0.4951
      5 O           2.0000   -1.4521    0.0000 O.3     1  UNL1       -0.5065
      6 C           4.6641    0.0721    0.0000 C.ar    1  UNL1        0.1060
      7 C           6.3961    0.0721    0.0000 C.ar    1  UNL1        0.0644
      8 C           4.6641   -0.9279    0.0000 C.ar    1  UNL1        0.1454
      9 C           5.5301    0.5721    0.0000 C.ar    1  UNL1        0.2037
     10 C           7.2622    0.5721    0.0000 C.ar    1  UNL1       -0.0110
     11 C           3.7702    0.6067    0.0000 C.ar    1  UNL1        0.1347
     12 C           6.3961   -0.9279    0.0000 C.ar    1  UNL1        0.1038
     13 C           3.7702   -1.4626    0.0000 C.ar    1  UNL1        0.0231
     14 C           7.2622    1.5721    0.0000 C.ar    1  UNL1       -0.0504
     15 C           8.1282    0.0721    0.0000 C.ar    1  UNL1       -0.0504
     16 C           2.8641    0.0929    0.0000 C.ar    1  UNL1        0.0223
     17 C           2.8641   -0.9487    0.0000 C.ar    1  UNL1        0.1239
     18 C           8.1282    2.0721    0.0000 C.ar    1  UNL1       -0.0194
     19 C           8.9942    0.5721    0.0000 C.ar    1  UNL1       -0.0194
     20 C           8.9942    1.5721    0.0000 C.ar    1  UNL1        0.1201
     21 C          10.7263    1.5721    0.0000 C.3     1  UNL1        0.0788
     22 H           6.9331   -1.2379    0.0000 H       1  UNL1        0.1037
     23 H           3.7773   -2.0826    0.0000 H       1  UNL1        0.0691
     24 H           6.7252    1.8821    0.0000 H       1  UNL1        0.0625
     25 H           8.1282   -0.5479    0.0000 H       1  UNL1        0.0625
     26 H           2.3284    0.4050    0.0000 H       1  UNL1        0.0691
     27 H           8.1282    2.6921    0.0000 H       1  UNL1        0.0654
     28 H           9.5312    0.2621    0.0000 H       1  UNL1        0.0654
     29 H           3.2484    1.9229    0.0000 H       1  UNL1        0.2922
     30 H           2.0024   -2.0721    0.0000 H       1  UNL1        0.2921
     31 H          10.4163    1.0351    0.0000 H       1  UNL1        0.0660
     32 H          11.2632    1.2621    0.0000 H       1  UNL1        0.0660
     33 H          11.0363    2.1090    0.0000 H       1  UNL1        0.0660
@<TRIPOS>BOND
     1     1     8   ar
     2     1    12   ar
     3     2    11    1
     4     2    29    1
     5     3     9    2
     6     4    20    1
     7     4    21    1
     8     5    17    1
     9     5    30    1
    10     6     8   ar
    11     6     9   ar
    12     6    11   ar
    13     7     9   ar
    14     7    10    1
    15     7    12   ar
    16     8    13   ar
    17    10    14   ar
    18    10    15   ar
    19    11    16   ar
    20    12    22    1
    21    13    17   ar
    22    13    23    1
    23    14    18   ar
    24    14    24    1
    25    15    19   ar
    26    15    25    1
    27    16    17   ar
    28    16    26    1
    29    18    20   ar
    30    18    27    1
    31    19    20   ar
    32    19    28    1
    33    21    31    1
    34    21    32    1
    35    21    33    1
