@<TRIPOS>MOLECULE
IMPHY013286
 177 188 0 0 0
SMALL
GASTEIGER

@<TRIPOS>ATOM
      1 O          12.9997   -3.7883    0.0000 O.3     1  UNL1       -0.3281
      2 O          13.8818   -6.3299    0.0000 O.3     1  UNL1       -0.4512
      3 O          15.6520   -5.3330    0.0000 O.3     1  UNL1       -0.4500
      4 O          15.6678   -3.2847    0.0000 O.3     1  UNL1       -0.4476
      5 O          13.8939   -2.2606    0.0000 O.3     1  UNL1       -0.4274
      6 O          11.8910   -6.2958    0.0000 O.3     1  UNL1       -0.4584
      7 O          12.8615   -8.0101    0.0000 O.2     1  UNL1       -0.2449
      8 O          16.5353   -3.8431    0.0000 O.2     1  UNL1       -0.2449
      9 O          14.8076   -1.7814    0.0000 O.2     1  UNL1       -0.2449
     10 O          12.1619   -2.2673    0.0000 O.2     1  UNL1       -0.2447
     11 O          12.8910   -6.2958    0.0000 O.2     1  UNL1       -0.2449
     12 O          13.3878  -10.6640    0.0000 O.3     1  UNL1       -0.5028
     13 O          11.2901   -0.7706    0.0000 O.3     1  UNL1       -0.4476
     14 O          12.3941  -10.6640    0.0000 O.3     1  UNL1       -0.5028
     15 O          16.4602   -8.9060    0.0000 O.3     1  UNL1       -0.5032
     16 O          15.4361  -10.6798    0.0000 O.3     1  UNL1       -0.5009
     17 O          10.3459  -10.6798    0.0000 O.3     1  UNL1       -0.5009
     18 O           9.3217   -8.9060    0.0000 O.3     1  UNL1       -0.5032
     19 O          19.9876   -4.8831    0.0000 O.3     1  UNL1       -0.5032
     20 O          18.2210   -7.8629    0.0000 O.3     1  UNL1       -0.5032
     21 O          17.4153    0.7086    0.0000 O.3     1  UNL1       -0.5032
     22 O          19.1357   -2.2981    0.0000 O.3     1  UNL1       -0.5032
     23 O          11.2824    1.2294    0.0000 O.3     1  UNL1       -0.5008
     24 O          14.7465    1.2427    0.0000 O.3     1  UNL1       -0.5032
     25 O          19.9645   -6.8830    0.0000 O.3     1  UNL1       -0.5009
     26 O          19.1434   -0.2981    0.0000 O.3     1  UNL1       -0.5009
     27 O           8.1381    3.6405    0.0000 O.3     1  UNL1       -0.4512
     28 O          13.0106    2.2360    0.0000 O.3     1  UNL1       -0.5008
     29 O           8.4120    6.2238    0.0000 O.3     1  UNL1       -0.4498
     30 O           9.6040    3.3511    0.0000 O.3     1  UNL1       -0.4584
     31 O           9.8628    5.7313    0.0000 O.3     1  UNL1       -0.3846
     32 O           6.4291    5.9627    0.0000 O.3     1  UNL1       -0.4465
     33 O           9.5162   -1.7948    0.0000 O.3     1  UNL1       -0.5009
     34 O           7.7503   -0.7570    0.0000 O.3     1  UNL1       -0.5028
     35 O           9.6343    2.8616    0.0000 O.2     1  UNL1       -0.2449
     36 O           8.7108    1.6657    0.0000 O.2     1  UNL1       -0.2449
     37 O           6.8897   -0.2601    0.0000 O.3     1  UNL1       -0.5028
     38 O           5.6638    4.1150    0.0000 O.2     1  UNL1       -0.2970
     39 O           5.1080    0.7503    0.0000 O.3     1  UNL1       -0.5009
     40 O           6.8118    6.8866    0.0000 O.2     1  UNL1       -0.2449
     41 O           5.1080    2.7986    0.0000 O.3     1  UNL1       -0.5032
     42 O           5.0550    4.9083    0.0000 O.2     1  UNL1       -0.2449
     43 O           7.3511   10.4516    0.0000 O.3     1  UNL1       -0.5032
     44 O          10.5515    9.1259    0.0000 O.3     1  UNL1       -0.5032
     45 O           9.3340   10.7126    0.0000 O.3     1  UNL1       -0.5009
     46 O           2.2373    7.1578    0.0000 O.3     1  UNL1       -0.5032
     47 O           4.9855    9.2667    0.0000 O.3     1  UNL1       -0.5032
     48 O           3.0026    9.0056    0.0000 O.3     1  UNL1       -0.5009
     49 C          13.8818   -5.3299    0.0000 C.3     1  UNL1        0.1730
     50 C          14.7918   -4.8230    0.0000 C.3     1  UNL1        0.1851
     51 C          13.0158   -4.8299    0.0000 C.3     1  UNL1        0.1371
     52 C          14.7999   -3.7814    0.0000 C.3     1  UNL1        0.2053
     53 C          13.8978   -3.2606    0.0000 C.3     1  UNL1        0.2465
     54 C          12.1498   -5.3299    0.0000 C.3     1  UNL1        0.1226
     55 C          13.3910   -7.1618    0.0000 C.2     1  UNL1        0.3405
     56 C          16.5238   -4.8430    0.0000 C.2     1  UNL1        0.3399
     57 C          15.6717   -2.2848    0.0000 C.2     1  UNL1        0.3400
     58 C          13.0260   -1.7639    0.0000 C.2     1  UNL1        0.3453
     59 C          13.8910   -8.0278    0.0000 C.ar    1  UNL1        0.0740
     60 C          12.3910   -7.1618    0.0000 C.2     1  UNL1        0.3401
     61 C          13.3910   -8.8938    0.0000 C.ar    1  UNL1        0.0458
     62 C          17.3840   -5.3530    0.0000 C.ar    1  UNL1        0.0661
     63 C          11.8910   -8.0278    0.0000 C.ar    1  UNL1        0.0740
     64 C          12.3910   -8.8938    0.0000 C.ar    1  UNL1        0.0458
     65 C          16.5396   -1.7881    0.0000 C.ar    1  UNL1        0.0661
     66 C          13.0221   -0.7639    0.0000 C.ar    1  UNL1        0.1085
     67 C          14.9325   -8.0118    0.0000 C.ar    1  UNL1       -0.0017
     68 C          13.8978   -9.8038    0.0000 C.ar    1  UNL1        0.1708
     69 C          11.8841   -9.8038    0.0000 C.ar    1  UNL1        0.1708
     70 C          10.8495   -8.0118    0.0000 C.ar    1  UNL1       -0.0017
     71 C          17.3724   -6.3529    0.0000 C.ar    1  UNL1       -0.0023
     72 C          18.2557   -4.8631    0.0000 C.ar    1  UNL1       -0.0023
     73 C          15.4602   -8.9098    0.0000 C.ar    1  UNL1        0.1628
     74 C          17.4037   -2.2914    0.0000 C.ar    1  UNL1       -0.0023
     75 C          16.5435   -0.7881    0.0000 C.ar    1  UNL1       -0.0023
     76 C          12.1542   -0.2673    0.0000 C.ar    1  UNL1        0.1876
     77 C          14.9394   -9.8119    0.0000 C.ar    1  UNL1        0.2012
     78 C          13.8862   -0.2606    0.0000 C.ar    1  UNL1        0.0013
     79 C          10.8425   -9.8119    0.0000 C.ar    1  UNL1        0.2012
     80 C          10.3217   -8.9098    0.0000 C.ar    1  UNL1        0.1628
     81 C          19.1159   -5.3730    0.0000 C.ar    1  UNL1        0.1628
     82 C          18.2326   -6.8629    0.0000 C.ar    1  UNL1        0.1628
     83 C          17.4114   -0.2914    0.0000 C.ar    1  UNL1        0.1628
     84 C          18.2716   -1.7948    0.0000 C.ar    1  UNL1        0.1628
     85 C          12.1503    0.7327    0.0000 C.ar    1  UNL1        0.2060
     86 C          13.8824    0.7394    0.0000 C.ar    1  UNL1        0.1630
     87 C          19.1043   -6.3730    0.0000 C.ar    1  UNL1        0.2006
     88 C          18.2755   -0.7948    0.0000 C.ar    1  UNL1        0.2006
     89 C          13.0144    1.2360    0.0000 C.ar    1  UNL1        0.2044
     90 C           8.6381    4.5065    0.0000 C.3     1  UNL1        0.1728
     91 C           8.0293    5.2999    0.0000 C.3     1  UNL1        0.1858
     92 C           9.6040    4.7654    0.0000 C.3     1  UNL1        0.1296
     93 C          10.4221   -0.2740    0.0000 C.ar    1  UNL1        0.1743
     94 C           7.0379    5.1694    0.0000 C.3     1  UNL1        0.1979
     95 C          10.3111    4.0582    0.0000 C.3     1  UNL1        0.1222
     96 C          10.4141    0.7676    0.0000 C.ar    1  UNL1       -0.0009
     97 C           9.5041    1.2745    0.0000 C.ar    1  UNL1        0.0740
     98 C           8.6381    0.7745    0.0000 C.ar    1  UNL1        0.0458
     99 C           9.5201   -0.7948    0.0000 C.ar    1  UNL1        0.2021
    100 C           8.6220   -0.2670    0.0000 C.ar    1  UNL1        0.1708
    101 C           7.7721    1.2745    0.0000 C.ar    1  UNL1        0.0458
    102 C           7.7721    2.2745    0.0000 C.ar    1  UNL1        0.0740
    103 C           8.6381    2.7745    0.0000 C.2     1  UNL1        0.3405
    104 C           9.5041    2.2745    0.0000 C.2     1  UNL1        0.3401
    105 C           6.6552    4.2455    0.0000 C.2     1  UNL1        0.1645
    106 C           6.8781    0.7398    0.0000 C.ar    1  UNL1        0.1708
    107 C           6.8781    2.8091    0.0000 C.ar    1  UNL1       -0.0017
    108 C           7.8032    7.0171    0.0000 C.2     1  UNL1        0.3399
    109 C           5.9720    1.2537    0.0000 C.ar    1  UNL1        0.2012
    110 C           5.9720    2.2953    0.0000 C.ar    1  UNL1        0.1628
    111 C           5.4377    5.8322    0.0000 C.2     1  UNL1        0.3402
    112 C           8.1859    7.9410    0.0000 C.ar    1  UNL1        0.0661
    113 C           4.8289    6.6255    0.0000 C.ar    1  UNL1        0.0661
    114 C           9.1774    8.0715    0.0000 C.ar    1  UNL1       -0.0023
    115 C           7.5772    8.7344    0.0000 C.ar    1  UNL1       -0.0023
    116 C           5.2116    7.5494    0.0000 C.ar    1  UNL1       -0.0023
    117 C           3.8375    6.4950    0.0000 C.ar    1  UNL1       -0.0023
    118 C           7.9599    9.6582    0.0000 C.ar    1  UNL1        0.1628
    119 C           9.5601    8.9954    0.0000 C.ar    1  UNL1        0.1628
    120 C           8.9513    9.7888    0.0000 C.ar    1  UNL1        0.2006
    121 C           3.2287    7.2884    0.0000 C.ar    1  UNL1        0.1628
    122 C           4.6028    8.3428    0.0000 C.ar    1  UNL1        0.1628
    123 C           3.6114    8.2122    0.0000 C.ar    1  UNL1        0.2006
    124 H          14.6147   -5.7605    0.0000 H       1  UNL1        0.0801
    125 H          15.3317   -4.5182    0.0000 H       1  UNL1        0.0813
    126 H          12.2764   -4.4105    0.0000 H       1  UNL1        0.0670
    127 H          15.3350   -4.0945    0.0000 H       1  UNL1        0.0837
    128 H          14.4341   -2.9496    0.0000 H       1  UNL1        0.1098
    129 H          11.9893   -4.7310    0.0000 H       1  UNL1        0.0725
    130 H          11.5298   -5.3299    0.0000 H       1  UNL1        0.0725
    131 H          15.2362   -7.4713    0.0000 H       1  UNL1        0.0664
    132 H          10.5457   -7.4713    0.0000 H       1  UNL1        0.0664
    133 H          16.8319   -6.6567    0.0000 H       1  UNL1        0.0663
    134 H          18.2629   -4.2431    0.0000 H       1  UNL1        0.0663
    135 H          17.4013   -2.9114    0.0000 H       1  UNL1        0.0663
    136 H          16.0077   -0.4760    0.0000 H       1  UNL1        0.0663
    137 H          14.4243   -0.5685    0.0000 H       1  UNL1        0.0665
    138 H          13.6916  -11.2045    0.0000 H       1  UNL1        0.2923
    139 H          12.0903  -11.2045    0.0000 H       1  UNL1        0.2923
    140 H           7.7899    4.4509    0.0000 H       1  UNL1        0.0801
    141 H          16.7681   -8.3678    0.0000 H       1  UNL1        0.2923
    142 H           7.6519    5.7918    0.0000 H       1  UNL1        0.0815
    143 H          16.0561  -10.6822    0.0000 H       1  UNL1        0.2924
    144 H           9.1656    5.2038    0.0000 H       1  UNL1        0.0666
    145 H           9.7259  -10.6822    0.0000 H       1  UNL1        0.2924
    146 H           9.0138   -8.3678    0.0000 H       1  UNL1        0.2923
    147 H           7.2752    5.7422    0.0000 H       1  UNL1        0.0851
    148 H          20.5210   -5.1993    0.0000 H       1  UNL1        0.2923
    149 H          18.7543   -8.1790    0.0000 H       1  UNL1        0.2923
    150 H          10.7495    3.6198    0.0000 H       1  UNL1        0.0725
    151 H          10.7495    4.4967    0.0000 H       1  UNL1        0.0725
    152 H          17.9534    1.0165    0.0000 H       1  UNL1        0.2923
    153 H          19.6739   -1.9902    0.0000 H       1  UNL1        0.2923
    154 H          11.2800    1.8494    0.0000 H       1  UNL1        0.2924
    155 H          10.9474    1.0838    0.0000 H       1  UNL1        0.0664
    156 H          14.7441    1.8627    0.0000 H       1  UNL1        0.2923
    157 H          20.5050   -6.5792    0.0000 H       1  UNL1        0.2924
    158 H          19.1458    0.3219    0.0000 H       1  UNL1        0.2924
    159 H          13.5463    2.5481    0.0000 H       1  UNL1        0.2924
    160 H          10.4617    5.8918    0.0000 H       1  UNL1        0.2101
    161 H           7.0326    3.7536    0.0000 H       1  UNL1        0.1067
    162 H           6.8853    3.4291    0.0000 H       1  UNL1        0.0664
    163 H           8.9781   -2.1027    0.0000 H       1  UNL1        0.2924
    164 H           7.7431   -1.3769    0.0000 H       1  UNL1        0.2923
    165 H           6.3564   -0.5763    0.0000 H       1  UNL1        0.2923
    166 H           9.5548    7.5796    0.0000 H       1  UNL1        0.0663
    167 H           6.9625    8.6534    0.0000 H       1  UNL1        0.0663
    168 H           4.5698    1.0583    0.0000 H       1  UNL1        0.2924
    169 H           5.1104    3.4186    0.0000 H       1  UNL1        0.2923
    170 H           5.8263    7.6304    0.0000 H       1  UNL1        0.0663
    171 H           3.6002    5.9222    0.0000 H       1  UNL1        0.0663
    172 H           7.5884   11.0244    0.0000 H       1  UNL1        0.2923
    173 H          10.7888    9.6987    0.0000 H       1  UNL1        0.2923
    174 H           8.9566   11.2045    0.0000 H       1  UNL1        0.2924
    175 H           2.0000    6.5850    0.0000 H       1  UNL1        0.2923
    176 H           4.6081    9.7585    0.0000 H       1  UNL1        0.2923
    177 H           2.3879    8.9247    0.0000 H       1  UNL1        0.2924
@<TRIPOS>BOND
     1     1    51    1
     2     1    53    1
     3     2    49    1
     4     2    55    1
     5    50     3    1
     6     3    56    1
     7    52     4    1
     8     4    57    1
     9    53     5    1
    10     5    58    1
    11     6    54    1
    12     6    60    1
    13     7    55    2
    14     8    56    2
    15     9    57    2
    16    10    58    2
    17    11    60    2
    18    12    68    1
    19    12   138    1
    20    13    76    1
    21    13    93    1
    22    14    69    1
    23    14   139    1
    24    15    73    1
    25    15   141    1
    26    16    77    1
    27    16   143    1
    28    17    79    1
    29    17   145    1
    30    18    80    1
    31    18   146    1
    32    19    81    1
    33    19   148    1
    34    20    82    1
    35    20   149    1
    36    21    83    1
    37    21   152    1
    38    22    84    1
    39    22   153    1
    40    23    85    1
    41    23   154    1
    42    24    86    1
    43    24   156    1
    44    25    87    1
    45    25   157    1
    46    26    88    1
    47    26   158    1
    48    27    90    1
    49    27   103    1
    50    28    89    1
    51    28   159    1
    52    91    29    1
    53    29   108    1
    54    30    95    1
    55    30   104    1
    56    92    31    1
    57    31   160    1
    58    94    32    1
    59    32   111    1
    60    33    99    1
    61    33   163    1
    62    34   100    1
    63    34   164    1
    64    35   103    2
    65    36   104    2
    66    37   106    1
    67    37   165    1
    68    38   105    2
    69    39   109    1
    70    39   168    1
    71    40   108    2
    72    41   110    1
    73    41   169    1
    74    42   111    2
    75    43   118    1
    76    43   172    1
    77    44   119    1
    78    44   173    1
    79    45   120    1
    80    45   174    1
    81    46   121    1
    82    46   175    1
    83    47   122    1
    84    47   176    1
    85    48   123    1
    86    48   177    1
    87    49    50    1
    88    49    51    1
    89    49   124    1
    90    50    52    1
    91    50   125    1
    92    51    54    1
    93    51   126    1
    94    52    53    1
    95    52   127    1
    96    53   128    1
    97    54   129    1
    98    54   130    1
    99    55    59    1
   100    56    62    1
   101    57    65    1
   102    58    66    1
   103    59    61   ar
   104    59    67   ar
   105    60    63    1
   106    61    64    1
   107    61    68   ar
   108    62    71   ar
   109    62    72   ar
   110    63    64   ar
   111    63    70   ar
   112    64    69   ar
   113    65    74   ar
   114    65    75   ar
   115    66    76   ar
   116    66    78   ar
   117    67    73   ar
   118    67   131    1
   119    68    77   ar
   120    69    79   ar
   121    70    80   ar
   122    70   132    1
   123    71    82   ar
   124    71   133    1
   125    72    81   ar
   126    72   134    1
   127    73    77   ar
   128    74    84   ar
   129    74   135    1
   130    75    83   ar
   131    75   136    1
   132    76    85   ar
   133    78    86   ar
   134    78   137    1
   135    79    80   ar
   136    81    87   ar
   137    82    87   ar
   138    83    88   ar
   139    84    88   ar
   140    85    89   ar
   141    86    89   ar
   142    90    91    1
   143    90    92    1
   144    90   140    1
   145    91    94    1
   146    91   142    1
   147    92    95    1
   148    92   144    1
   149    93    96   ar
   150    93    99   ar
   151    94   105    1
   152    94   147    1
   153    95   150    1
   154    95   151    1
   155    96    97   ar
   156    96   155    1
   157    97    98   ar
   158    97   104    1
   159    98   100   ar
   160    98   101    1
   161    99   100   ar
   162   101   102   ar
   163   101   106   ar
   164   102   103    1
   165   102   107   ar
   166   105   161    1
   167   106   109   ar
   168   107   110   ar
   169   107   162    1
   170   108   112    1
   171   109   110   ar
   172   111   113    1
   173   112   114   ar
   174   112   115   ar
   175   113   116   ar
   176   113   117   ar
   177   114   119   ar
   178   114   166    1
   179   115   118   ar
   180   115   167    1
   181   116   122   ar
   182   116   170    1
   183   117   121   ar
   184   117   171    1
   185   118   120   ar
   186   119   120   ar
   187   121   123   ar
   188   122   123   ar
