@<TRIPOS>MOLECULE
IMPHY000692
 17 17 0 0 0
SMALL
GASTEIGER

@<TRIPOS>ATOM
      1 O           4.5981    1.7500    0.0000 O.2     1  UNL1       -0.2957
      2 C           2.8660   -0.2500    0.0000 C.ar    1  UNL1       -0.0403
      3 C           3.7320    0.2500    0.0000 C.ar    1  UNL1        0.0171
      4 C           2.8660   -1.2500    0.0000 C.ar    1  UNL1       -0.0582
      5 C           4.5981   -0.2500    0.0000 C.ar    1  UNL1       -0.0513
      6 C           2.0000    0.2500    0.0000 C.3     1  UNL1       -0.0391
      7 C           3.7320   -1.7500    0.0000 C.ar    1  UNL1       -0.0615
      8 C           4.5981   -1.2500    0.0000 C.ar    1  UNL1       -0.0611
      9 C           3.7320    1.2500    0.0000 C.2     1  UNL1        0.1504
     10 H           2.3291   -1.5600    0.0000 H       1  UNL1        0.0620
     11 H           5.1350    0.0600    0.0000 H       1  UNL1        0.0624
     12 H           2.3100    0.7869    0.0000 H       1  UNL1        0.0278
     13 H           1.4631    0.5600    0.0000 H       1  UNL1        0.0278
     14 H           1.6900   -0.2869    0.0000 H       1  UNL1        0.0278
     15 H           3.7320   -2.3700    0.0000 H       1  UNL1        0.0618
     16 H           5.1350   -1.5600    0.0000 H       1  UNL1        0.0618
     17 H           3.1951    1.5600    0.0000 H       1  UNL1        0.1081
@<TRIPOS>BOND
     1     1     9    2
     2     2     3   ar
     3     2     4   ar
     4     2     6    1
     5     3     5   ar
     6     3     9    1
     7     4     7   ar
     8     4    10    1
     9     5     8   ar
    10     5    11    1
    11     6    12    1
    12     6    13    1
    13     6    14    1
    14     7     8   ar
    15     7    15    1
    16     8    16    1
    17     9    17    1
