@<TRIPOS>MOLECULE
IMPHY014151
 39 41 0 0 0
SMALL
GASTEIGER

@<TRIPOS>ATOM
      1 O           5.0393    1.8211    0.0000 O.3     1  UNL1       -0.4179
      2 O           8.1301    0.8772    0.0000 O.3     1  UNL1       -0.4943
      3 O           2.8680    0.9014    0.0000 O.3     1  UNL1       -0.4911
      4 O           6.6035    2.6228    0.0000 O.2     1  UNL1       -0.2444
      5 C           5.5320   -0.6228    0.0000 C.ar    1  UNL1       -0.0094
      6 C           6.3981   -1.1228    0.0000 C.ar    1  UNL1       -0.0335
      7 C           5.5320    0.3772    0.0000 C.ar    1  UNL1        0.0460
      8 C           6.3981   -2.1228    0.0000 C.3     1  UNL1       -0.0208
      9 C           6.3981    0.8772    0.0000 C.ar    1  UNL1        0.1122
     10 C           4.6381    0.9119    0.0000 C.ar    1  UNL1        0.1822
     11 C           7.2641   -0.6228    0.0000 C.ar    1  UNL1       -0.0151
     12 C           4.6381   -1.1575    0.0000 C.ar    1  UNL1       -0.0471
     13 C           7.2641    0.3772    0.0000 C.ar    1  UNL1        0.1351
     14 C           3.7320   -0.6436    0.0000 C.ar    1  UNL1       -0.0045
     15 C           3.7320    0.3980    0.0000 C.ar    1  UNL1        0.1658
     16 C           7.2641   -2.6228    0.0000 C.3     1  UNL1       -0.0586
     17 C           5.5320   -2.6228    0.0000 C.3     1  UNL1       -0.0586
     18 C           6.0330    1.8015    0.0000 C.2     1  UNL1        0.3488
     19 C           2.8680   -1.1470    0.0000 C.3     1  UNL1       -0.0361
     20 C           8.9962    0.3772    0.0000 C.3     1  UNL1        0.0788
     21 C           2.0000    0.4047    0.0000 C.3     1  UNL1        0.0790
     22 H           6.3981   -2.7428    0.0000 H       1  UNL1        0.0344
     23 H           7.8010   -0.9328    0.0000 H       1  UNL1        0.0657
     24 H           4.6453   -1.7774    0.0000 H       1  UNL1        0.0627
     25 H           6.9541   -3.1597    0.0000 H       1  UNL1        0.0235
     26 H           7.8010   -2.9328    0.0000 H       1  UNL1        0.0235
     27 H           7.5741   -2.0859    0.0000 H       1  UNL1        0.0235
     28 H           5.2220   -2.0859    0.0000 H       1  UNL1        0.0235
     29 H           4.9951   -2.9328    0.0000 H       1  UNL1        0.0235
     30 H           5.8421   -3.1597    0.0000 H       1  UNL1        0.0235
     31 H           2.5559   -0.6112    0.0000 H       1  UNL1        0.0279
     32 H           2.3322   -1.4590    0.0000 H       1  UNL1        0.0279
     33 H           3.1800   -1.6827    0.0000 H       1  UNL1        0.0279
     34 H           8.6862   -0.1597    0.0000 H       1  UNL1        0.0660
     35 H           9.5331    0.0672    0.0000 H       1  UNL1        0.0660
     36 H           9.3062    0.9141    0.0000 H       1  UNL1        0.0660
     37 H           1.6921    0.9428    0.0000 H       1  UNL1        0.0660
     38 H           1.4619    0.0968    0.0000 H       1  UNL1        0.0660
     39 H           2.3079   -0.1334    0.0000 H       1  UNL1        0.0660
@<TRIPOS>BOND
     1     1    10    1
     2     1    18    1
     3     2    13    1
     4     2    20    1
     5     3    15    1
     6     3    21    1
     7     4    18    2
     8     5     6   ar
     9     5     7   ar
    10     5    12   ar
    11     6     8    1
    12     6    11   ar
    13     7     9   ar
    14     7    10   ar
    15     8    16    1
    16     8    17    1
    17     8    22    1
    18     9    13   ar
    19     9    18    1
    20    10    15   ar
    21    11    13   ar
    22    11    23    1
    23    12    14   ar
    24    12    24    1
    25    14    15   ar
    26    14    19    1
    27    16    25    1
    28    16    26    1
    29    16    27    1
    30    17    28    1
    31    17    29    1
    32    17    30    1
    33    19    31    1
    34    19    32    1
    35    19    33    1
    36    20    34    1
    37    20    35    1
    38    20    36    1
    39    21    37    1
    40    21    38    1
    41    21    39    1
