@<TRIPOS>MOLECULE
IMPHY011497
 103 115 0 0 0
SMALL
GASTEIGER

@<TRIPOS>ATOM
      1 O           6.2981   -1.0358    0.0000 O.3     1  UNL1       -0.3703
      2 O           6.3556    0.5477    0.0000 O.3     1  UNL1       -0.3753
      3 O           2.6039    0.8464    0.0000 O.3     1  UNL1       -0.3759
      4 O           7.5385   -4.0293    0.0000 O.3     1  UNL1       -0.4932
      5 O           8.1907    3.9115    0.0000 O.3     1  UNL1       -0.4646
      6 O           9.9227    3.9248    0.0000 O.2     1  UNL1       -0.2453
      7 N           6.4260   -2.2133    0.0000 N.pl3   1  UNL1       -0.2976
      8 N           2.9061   -2.2133    0.0000 N.3     1  UNL1       -0.2977
      9 N           9.0641   -0.6511    0.0000 N.3     1  UNL1       -0.2969
     10 N          10.9591    2.2145    0.0000 N.pl3   1  UNL1       -0.3164
     11 C           4.6660   -2.1786    0.0000 C.3     1  UNL1        0.0607
     12 C           5.5321   -1.6786    0.0000 C.3     1  UNL1        0.1472
     13 C           3.8000   -1.6786    0.0000 C.3     1  UNL1        0.0324
     14 C           3.8000   -0.6786    0.0000 C.3     1  UNL1        0.0160
     15 C           5.5321   -0.6786    0.0000 C.3     1  UNL1        0.0071
     16 C           7.3321   -0.6578    0.0000 C.3     1  UNL1        0.0264
     17 C           4.6660   -0.1786    0.0000 C.3     1  UNL1       -0.0364
     18 C           6.4260   -0.1439    0.0000 C.3     1  UNL1       -0.0353
     19 C           8.1923    0.8455    0.0000 C.3     1  UNL1        0.0206
     20 C           7.3282    0.3422    0.0000 C.3     1  UNL1        0.0743
     21 C           9.0602    0.3489    0.0000 C.3     1  UNL1        0.0337
     22 C           7.3321   -1.6994    0.0000 C.3     1  UNL1        0.0241
     23 C           4.3009   -3.1029    0.0000 C.3     1  UNL1       -0.0248
     24 C           2.9061   -0.1439    0.0000 C.3     1  UNL1        0.0670
     25 C           8.2000   -1.1544    0.0000 C.3     1  UNL1        0.0087
     26 C           5.0312   -3.1029    0.0000 C.ar    1  UNL1       -0.0106
     27 C           9.9683    0.8592    0.0000 C.3     1  UNL1        0.0531
     28 C           4.1326    0.3020    0.0000 C.3     1  UNL1       -0.0199
     29 C           3.3073   -3.1225    0.0000 C.3     1  UNL1        0.0002
     30 C           6.0248   -3.1225    0.0000 C.ar    1  UNL1        0.0780
     31 C           2.0000   -1.6994    0.0000 C.3     1  UNL1        0.0016
     32 C           2.0000   -0.6578    0.0000 C.3     1  UNL1       -0.0132
     33 C           7.5224    1.5800    0.0000 C.3     1  UNL1       -0.0196
     34 C           8.1722    1.8870    0.0000 C.3     1  UNL1       -0.0098
     35 C          10.5582    0.0594    0.0000 C.3     1  UNL1       -0.0238
     36 C          10.0477   -0.7933    0.0000 C.3     1  UNL1        0.0004
     37 C           3.3776    1.1820    0.0000 C.3     1  UNL1        0.0487
     38 C           9.9723    1.9008    0.0000 C.2     1  UNL1        0.0304
     39 C           6.4324    1.3537    0.0000 C.3     1  UNL1        0.0487
     40 C           9.0682    2.4182    0.0000 C.2     1  UNL1        0.0551
     41 C          10.9527    0.5380    0.0000 C.ar    1  UNL1       -0.0130
     42 C           4.4824   -3.9807    0.0000 C.ar    1  UNL1       -0.0559
     43 C           6.5385   -4.0212    0.0000 C.ar    1  UNL1        0.1414
     44 C          11.5638    1.3739    0.0000 C.ar    1  UNL1        0.0353
     45 C           4.9752   -4.8910    0.0000 C.ar    1  UNL1       -0.0579
     46 C           6.0102   -4.9114    0.0000 C.ar    1  UNL1       -0.0181
     47 C          11.3732   -0.4552    0.0000 C.ar    1  UNL1       -0.0559
     48 C           9.0605    3.4182    0.0000 C.2     1  UNL1        0.3364
     49 C          12.6378    1.2745    0.0000 C.ar    1  UNL1       -0.0403
     50 C          12.4446   -0.5794    0.0000 C.ar    1  UNL1       -0.0614
     51 C          13.0811    0.2913    0.0000 C.ar    1  UNL1       -0.0600
     52 C           8.0314   -4.8994    0.0000 C.3     1  UNL1        0.0789
     53 C           8.1830    4.9114    0.0000 C.3     1  UNL1        0.0820
     54 H           3.0639   -1.2536    0.0000 H       1  UNL1        0.0479
     55 H           5.5255    0.1714    0.0000 H       1  UNL1        0.0346
     56 H           5.0646    0.2963    0.0000 H       1  UNL1        0.0276
     57 H           4.2675    0.2963    0.0000 H       1  UNL1        0.0276
     58 H           6.8196    0.3351    0.0000 H       1  UNL1        0.0276
     59 H           6.0214    0.3258    0.0000 H       1  UNL1        0.0276
     60 H           6.6690   -0.1944    0.0000 H       1  UNL1        0.0608
     61 H           9.0570    1.1989    0.0000 H       1  UNL1        0.0481
     62 H           7.5411   -2.2831    0.0000 H       1  UNL1        0.0471
     63 H           7.9429   -1.5933    0.0000 H       1  UNL1        0.0471
     64 H           4.2315   -3.7190    0.0000 H       1  UNL1        0.0288
     65 H           4.9025   -3.2528    0.0000 H       1  UNL1        0.0288
     66 H           2.1165    0.1708    0.0000 H       1  UNL1        0.0602
     67 H           7.8033   -1.6309    0.0000 H       1  UNL1        0.0433
     68 H           8.6004   -1.6279    0.0000 H       1  UNL1        0.0433
     69 H           4.6751    0.0019    0.0000 H       1  UNL1        0.0294
     70 H           4.5241    0.7827    0.0000 H       1  UNL1        0.0294
     71 H           2.7121   -3.2960    0.0000 H       1  UNL1        0.0427
     72 H           3.4010   -3.7354    0.0000 H       1  UNL1        0.0427
     73 H           1.3891   -1.5933    0.0000 H       1  UNL1        0.0427
     74 H           1.7909   -2.2831    0.0000 H       1  UNL1        0.0427
     75 H           1.7909   -0.0741    0.0000 H       1  UNL1        0.0303
     76 H           1.3891   -0.7639    0.0000 H       1  UNL1        0.0303
     77 H           8.0473    1.9100    0.0000 H       1  UNL1        0.0294
     78 H           7.2907    2.1551    0.0000 H       1  UNL1        0.0294
     79 H           7.9520    2.4665    0.0000 H       1  UNL1        0.0323
     80 H           7.5635    1.7691    0.0000 H       1  UNL1        0.0323
     81 H          11.0436   -0.3263    0.0000 H       1  UNL1        0.0290
     82 H          11.0044    0.4899    0.0000 H       1  UNL1        0.0290
     83 H           9.8790   -1.3899    0.0000 H       1  UNL1        0.0427
     84 H          10.6169   -1.0390    0.0000 H       1  UNL1        0.0427
     85 H           6.8807   -1.2479    0.0000 H       1  UNL1        0.2121
     86 H           3.8861    1.5368    0.0000 H       1  UNL1        0.0560
     87 H           3.0754    1.7234    0.0000 H       1  UNL1        0.0560
     88 H           6.3676    1.9703    0.0000 H       1  UNL1        0.0560
     89 H           5.8125    1.3506    0.0000 H       1  UNL1        0.0560
     90 H           3.8627   -3.9613    0.0000 H       1  UNL1        0.0621
     91 H          11.1540    2.8030    0.0000 H       1  UNL1        0.1519
     92 H           4.6527   -5.4205    0.0000 H       1  UNL1        0.0619
     93 H           6.3117   -5.4532    0.0000 H       1  UNL1        0.0655
     94 H          11.0015   -0.9515    0.0000 H       1  UNL1        0.0621
     95 H          12.9979    1.7792    0.0000 H       1  UNL1        0.0636
     96 H          12.6928   -1.1475    0.0000 H       1  UNL1        0.0618
     97 H          13.6978    0.2270    0.0000 H       1  UNL1        0.0618
     98 H           7.4920   -5.2050    0.0000 H       1  UNL1        0.0660
     99 H           8.3371   -5.4388    0.0000 H       1  UNL1        0.0660
    100 H           8.5709   -4.5938    0.0000 H       1  UNL1        0.0660
    101 H           8.8029    4.9162    0.0000 H       1  UNL1        0.0661
    102 H           8.1782    5.5314    0.0000 H       1  UNL1        0.0661
    103 H           7.5630    4.9067    0.0000 H       1  UNL1        0.0661
@<TRIPOS>BOND
     1    12     1    1
     2     1    85    1
     3     2    20    1
     4     2    39    1
     5     3    24    1
     6     3    37    1
     7     4    43    1
     8     4    52    1
     9     5    48    1
    10     5    53    1
    11     6    48    2
    12     7    12    1
    13     7    22    1
    14     7    30    1
    15     8    13    1
    16     8    29    1
    17     8    31    1
    18     9    21    1
    19     9    25    1
    20     9    36    1
    21    10    38    1
    22    10    44    1
    23    10    91    1
    24    11    12    1
    25    11    13    1
    26    11    23    1
    27    11    26    1
    28    12    15    1
    29    13    14    1
    30    13    54    1
    31    14    17    1
    32    14    24    1
    33    14    28    1
    34    15    17    1
    35    15    18    1
    36    15    55    1
    37    16    18    1
    38    16    20    1
    39    16    22    1
    40    16    25    1
    41    17    56    1
    42    17    57    1
    43    18    58    1
    44    18    59    1
    45    19    20    1
    46    19    21    1
    47    19    33    1
    48    19    34    1
    49    20    60    1
    50    21    27    1
    51    21    61    1
    52    22    62    1
    53    22    63    1
    54    23    29    1
    55    23    64    1
    56    23    65    1
    57    24    32    1
    58    24    66    1
    59    25    67    1
    60    25    68    1
    61    26    30   ar
    62    26    42   ar
    63    27    35    1
    64    27    38    1
    65    27    41    1
    66    28    37    1
    67    28    69    1
    68    28    70    1
    69    29    71    1
    70    29    72    1
    71    30    43   ar
    72    31    32    1
    73    31    73    1
    74    31    74    1
    75    32    75    1
    76    32    76    1
    77    33    39    1
    78    33    77    1
    79    33    78    1
    80    34    40    1
    81    34    79    1
    82    34    80    1
    83    35    36    1
    84    35    81    1
    85    35    82    1
    86    36    83    1
    87    36    84    1
    88    37    86    1
    89    37    87    1
    90    38    40    2
    91    39    88    1
    92    39    89    1
    93    40    48    1
    94    41    44   ar
    95    41    47   ar
    96    42    45   ar
    97    42    90    1
    98    43    46   ar
    99    44    49   ar
   100    45    46   ar
   101    45    92    1
   102    46    93    1
   103    47    50   ar
   104    47    94    1
   105    49    51   ar
   106    49    95    1
   107    50    51   ar
   108    50    96    1
   109    51    97    1
   110    52    98    1
   111    52    99    1
   112    52   100    1
   113    53   101    1
   114    53   102    1
   115    53   103    1
