@<TRIPOS>MOLECULE
IMPHY015027
 74 74 0 0 0
SMALL
GASTEIGER

@<TRIPOS>ATOM
      1 O           4.5981   -3.5950    0.0000 O.3     1  UNL1       -0.4616
      2 O           2.8660   -3.5950    0.0000 O.2     1  UNL1       -0.2456
      3 O           2.8660   -9.5950    0.0000 O.3     1  UNL1       -0.5068
      4 C           8.0622    3.4050    0.0000 C.3     1  UNL1       -0.0531
      5 C           8.9282    3.9050    0.0000 C.3     1  UNL1       -0.0531
      6 C           8.0622    2.4050    0.0000 C.3     1  UNL1       -0.0531
      7 C           8.9282    4.9050    0.0000 C.3     1  UNL1       -0.0531
      8 C           7.1962    1.9050    0.0000 C.3     1  UNL1       -0.0531
      9 C           9.7942    5.4050    0.0000 C.3     1  UNL1       -0.0531
     10 C           7.1962    0.9050    0.0000 C.3     1  UNL1       -0.0531
     11 C           9.7942    6.4050    0.0000 C.3     1  UNL1       -0.0531
     12 C           6.3301    0.4050    0.0000 C.3     1  UNL1       -0.0531
     13 C          10.6603    6.9050    0.0000 C.3     1  UNL1       -0.0531
     14 C           6.3301   -0.5950    0.0000 C.3     1  UNL1       -0.0530
     15 C          10.6603    7.9050    0.0000 C.3     1  UNL1       -0.0531
     16 C           5.4641   -1.0950    0.0000 C.3     1  UNL1       -0.0500
     17 C          11.5263    8.4050    0.0000 C.3     1  UNL1       -0.0533
     18 C           5.4641   -2.0950    0.0000 C.3     1  UNL1       -0.0185
     19 C          11.5263    9.4050    0.0000 C.3     1  UNL1       -0.0559
     20 C           4.5981   -2.5950    0.0000 C.3     1  UNL1        0.0928
     21 C          12.3923    9.9050    0.0000 C.3     1  UNL1       -0.0653
     22 C           3.7320   -4.0950    0.0000 C.2     1  UNL1        0.3319
     23 C           3.7320   -5.0950    0.0000 C.2     1  UNL1        0.0231
     24 C           2.8660   -5.5950    0.0000 C.2     1  UNL1       -0.0478
     25 C           2.8660   -6.5950    0.0000 C.ar    1  UNL1       -0.0246
     26 C           3.7320   -7.0950    0.0000 C.ar    1  UNL1       -0.0511
     27 C           2.0000   -7.0950    0.0000 C.ar    1  UNL1       -0.0511
     28 C           3.7320   -8.0950    0.0000 C.ar    1  UNL1       -0.0196
     29 C           2.0000   -8.0950    0.0000 C.ar    1  UNL1       -0.0196
     30 C           2.8660   -8.5950    0.0000 C.ar    1  UNL1        0.1169
     31 H           7.8501    3.9876    0.0000 H       1  UNL1        0.0265
     32 H           7.4516    3.2973    0.0000 H       1  UNL1        0.0265
     33 H           9.1403    3.3224    0.0000 H       1  UNL1        0.0265
     34 H           9.5388    4.0127    0.0000 H       1  UNL1        0.0265
     35 H           8.2742    1.8224    0.0000 H       1  UNL1        0.0265
     36 H           8.6728    2.5127    0.0000 H       1  UNL1        0.0265
     37 H           8.7162    5.4876    0.0000 H       1  UNL1        0.0265
     38 H           8.3176    4.7973    0.0000 H       1  UNL1        0.0265
     39 H           6.9841    2.4876    0.0000 H       1  UNL1        0.0265
     40 H           6.5856    1.7973    0.0000 H       1  UNL1        0.0265
     41 H          10.0063    4.8224    0.0000 H       1  UNL1        0.0265
     42 H          10.4048    5.5127    0.0000 H       1  UNL1        0.0265
     43 H           7.4082    0.3224    0.0000 H       1  UNL1        0.0265
     44 H           7.8067    1.0127    0.0000 H       1  UNL1        0.0265
     45 H           9.5822    6.9876    0.0000 H       1  UNL1        0.0265
     46 H           9.1836    6.2973    0.0000 H       1  UNL1        0.0265
     47 H           6.1181    0.9876    0.0000 H       1  UNL1        0.0265
     48 H           5.7196    0.2973    0.0000 H       1  UNL1        0.0265
     49 H          10.8723    6.3224    0.0000 H       1  UNL1        0.0265
     50 H          11.2708    7.0127    0.0000 H       1  UNL1        0.0265
     51 H           6.5422   -1.1776    0.0000 H       1  UNL1        0.0265
     52 H           6.9407   -0.4873    0.0000 H       1  UNL1        0.0265
     53 H          10.4482    8.4876    0.0000 H       1  UNL1        0.0265
     54 H          10.0497    7.7973    0.0000 H       1  UNL1        0.0265
     55 H           5.2520   -0.5124    0.0000 H       1  UNL1        0.0266
     56 H           4.8535   -1.2027    0.0000 H       1  UNL1        0.0266
     57 H          11.7383    7.8224    0.0000 H       1  UNL1        0.0265
     58 H          12.1369    8.5127    0.0000 H       1  UNL1        0.0265
     59 H           5.6762   -2.6776    0.0000 H       1  UNL1        0.0298
     60 H           6.0747   -1.9873    0.0000 H       1  UNL1        0.0298
     61 H          11.3142    9.9876    0.0000 H       1  UNL1        0.0263
     62 H          10.9157    9.2973    0.0000 H       1  UNL1        0.0263
     63 H           4.3860   -2.0124    0.0000 H       1  UNL1        0.0697
     64 H           3.9875   -2.7027    0.0000 H       1  UNL1        0.0697
     65 H          12.7023    9.3681    0.0000 H       1  UNL1        0.0230
     66 H          12.9292   10.2150    0.0000 H       1  UNL1        0.0230
     67 H          12.0823   10.4419    0.0000 H       1  UNL1        0.0230
     68 H           4.2690   -5.4050    0.0000 H       1  UNL1        0.0689
     69 H           2.3291   -5.2850    0.0000 H       1  UNL1        0.0626
     70 H           4.2690   -6.7850    0.0000 H       1  UNL1        0.0625
     71 H           1.4631   -6.7850    0.0000 H       1  UNL1        0.0625
     72 H           4.2690   -8.4050    0.0000 H       1  UNL1        0.0654
     73 H           1.4631   -8.4050    0.0000 H       1  UNL1        0.0654
     74 H           2.3291   -9.9050    0.0000 H       1  UNL1        0.2921
@<TRIPOS>BOND
     1     1    20    1
     2     1    22    1
     3     2    22    2
     4     3    30    1
     5     3    74    1
     6     4     5    1
     7     4     6    1
     8     4    31    1
     9     4    32    1
    10     5     7    1
    11     5    33    1
    12     5    34    1
    13     6     8    1
    14     6    35    1
    15     6    36    1
    16     7     9    1
    17     7    37    1
    18     7    38    1
    19     8    10    1
    20     8    39    1
    21     8    40    1
    22     9    11    1
    23     9    41    1
    24     9    42    1
    25    10    12    1
    26    10    43    1
    27    10    44    1
    28    11    13    1
    29    11    45    1
    30    11    46    1
    31    12    14    1
    32    12    47    1
    33    12    48    1
    34    13    15    1
    35    13    49    1
    36    13    50    1
    37    14    16    1
    38    14    51    1
    39    14    52    1
    40    15    17    1
    41    15    53    1
    42    15    54    1
    43    16    18    1
    44    16    55    1
    45    16    56    1
    46    17    19    1
    47    17    57    1
    48    17    58    1
    49    18    20    1
    50    18    59    1
    51    18    60    1
    52    19    21    1
    53    19    61    1
    54    19    62    1
    55    20    63    1
    56    20    64    1
    57    21    65    1
    58    21    66    1
    59    21    67    1
    60    22    23    1
    61    23    24    2
    62    23    68    1
    63    24    25    1
    64    24    69    1
    65    25    26   ar
    66    25    27   ar
    67    26    28   ar
    68    26    70    1
    69    27    29   ar
    70    27    71    1
    71    28    30   ar
    72    28    72    1
    73    29    30   ar
    74    29    73    1
