@<TRIPOS>MOLECULE
IMPHY009159
 43 45 0 0 0
SMALL
GASTEIGER

@<TRIPOS>ATOM
      1 O           6.3981   -0.5223    0.0000 O.2     1  UNL1       -0.4542
      2 O           4.6497    2.5123    0.0000 O.3     1  UNL1       -0.4906
      3 O           2.8680    1.5019    0.0000 O.3     1  UNL1       -0.4914
      4 O           7.2641   -2.0223    0.0000 O.3     1  UNL1       -0.4943
      5 O           8.9962    0.9777    0.0000 O.3     1  UNL1       -0.4943
      6 O           6.3981    2.4777    0.0000 O.2     1  UNL1       -0.2869
      7 C           5.5320    0.9777    0.0000 C.ar    1  UNL1        0.1091
      8 C           5.5320   -0.0223    0.0000 C.ar    1  UNL1        0.1430
      9 C           7.2641   -0.0223    0.0000 C.ar    1  UNL1        0.1463
     10 C           8.1301   -0.5223    0.0000 C.ar    1  UNL1        0.1005
     11 C           4.6381    1.5124    0.0000 C.ar    1  UNL1        0.1758
     12 C           6.3981    1.4777    0.0000 C.ar    1  UNL1        0.1967
     13 C           7.2641    0.9777    0.0000 C.ar    1  UNL1        0.0291
     14 C           4.6381   -0.5569    0.0000 C.ar    1  UNL1       -0.0149
     15 C           3.7320    0.9985    0.0000 C.ar    1  UNL1        0.1624
     16 C           8.1301   -1.5223    0.0000 C.ar    1  UNL1        0.1343
     17 C           8.9962   -0.0223    0.0000 C.ar    1  UNL1        0.1343
     18 C           3.7320   -0.0431    0.0000 C.ar    1  UNL1       -0.0128
     19 C           8.9962   -2.0223    0.0000 C.ar    1  UNL1       -0.0190
     20 C           9.8622   -0.5223    0.0000 C.ar    1  UNL1       -0.0190
     21 C           9.8622   -1.5223    0.0000 C.ar    1  UNL1       -0.0548
     22 C           3.7895    3.0223    0.0000 C.3     1  UNL1        0.0790
     23 C           2.0000    1.0052    0.0000 C.3     1  UNL1        0.0790
     24 C           7.2641   -3.0223    0.0000 C.3     1  UNL1        0.0788
     25 C           9.8622    1.4777    0.0000 C.3     1  UNL1        0.0788
     26 H           7.8010    1.2877    0.0000 H       1  UNL1        0.0693
     27 H           4.6453   -1.1769    0.0000 H       1  UNL1        0.0656
     28 H           3.1963   -0.3552    0.0000 H       1  UNL1        0.0656
     29 H           8.9962   -2.6423    0.0000 H       1  UNL1        0.0654
     30 H          10.3991   -0.2123    0.0000 H       1  UNL1        0.0654
     31 H          10.3991   -1.8323    0.0000 H       1  UNL1        0.0620
     32 H           4.1057    3.5556    0.0000 H       1  UNL1        0.0660
     33 H           3.2562    3.3385    0.0000 H       1  UNL1        0.0660
     34 H           3.4733    2.4890    0.0000 H       1  UNL1        0.0660
     35 H           1.6921    1.5433    0.0000 H       1  UNL1        0.0660
     36 H           1.4619    0.6973    0.0000 H       1  UNL1        0.0660
     37 H           2.3079    0.4671    0.0000 H       1  UNL1        0.0660
     38 H           6.6441   -3.0223    0.0000 H       1  UNL1        0.0660
     39 H           7.2641   -3.6423    0.0000 H       1  UNL1        0.0660
     40 H           7.8841   -3.0223    0.0000 H       1  UNL1        0.0660
     41 H          10.1722    0.9408    0.0000 H       1  UNL1        0.0660
     42 H          10.3991    1.7877    0.0000 H       1  UNL1        0.0660
     43 H           9.5522    2.0146    0.0000 H       1  UNL1        0.0660
@<TRIPOS>BOND
     1     1     8   ar
     2     1     9   ar
     3     2    11    1
     4     2    22    1
     5     3    15    1
     6     3    23    1
     7     4    16    1
     8     4    24    1
     9     5    17    1
    10     5    25    1
    11     6    12    2
    12     7     8   ar
    13     7    11   ar
    14     7    12   ar
    15     8    14   ar
    16     9    10    1
    17     9    13   ar
    18    10    16   ar
    19    10    17   ar
    20    11    15   ar
    21    12    13   ar
    22    13    26    1
    23    14    18   ar
    24    14    27    1
    25    15    18   ar
    26    16    19   ar
    27    17    20   ar
    28    18    28    1
    29    19    21   ar
    30    19    29    1
    31    20    21   ar
    32    20    30    1
    33    21    31    1
    34    22    32    1
    35    22    33    1
    36    22    34    1
    37    23    35    1
    38    23    36    1
    39    23    37    1
    40    24    38    1
    41    24    39    1
    42    24    40    1
    43    25    41    1
    44    25    42    1
    45    25    43    1
