@<TRIPOS>MOLECULE
IMPHY002880
 72 77 0 0 0
SMALL
GASTEIGER

@<TRIPOS>ATOM
      1 O          10.0641   -0.9753    0.0000 O.3     1  UNL1       -0.3881
      2 O           2.7320    0.9753    0.0000 O.3     1  UNL1       -0.3881
      3 O           6.3981   -3.5000    0.0000 O.3     1  UNL1       -0.5053
      4 O           6.3981    3.5000    0.0000 O.3     1  UNL1       -0.5053
      5 O           8.1465   -3.5346    0.0000 O.2     1  UNL1       -0.2918
      6 O           4.6497    3.5346    0.0000 O.2     1  UNL1       -0.2918
      7 O           4.6497   -3.5346    0.0000 O.3     1  UNL1       -0.5059
      8 O           8.1465    3.5346    0.0000 O.3     1  UNL1       -0.5059
      9 O           2.8680   -0.4758    0.0000 O.3     1  UNL1       -0.4950
     10 O           9.9282    0.4758    0.0000 O.3     1  UNL1       -0.4950
     11 C           9.0641   -0.9792    0.0000 C.3     1  UNL1        0.0743
     12 C           3.7320    0.9792    0.0000 C.3     1  UNL1        0.0743
     13 C           7.2641   -1.0000    0.0000 C.ar    1  UNL1       -0.0223
     14 C           5.5320    1.0000    0.0000 C.ar    1  UNL1       -0.0223
     15 C           4.6381    0.4653    0.0000 C.3     1  UNL1        0.0028
     16 C           8.1580   -0.4653    0.0000 C.3     1  UNL1        0.0028
     17 C           6.3981   -0.5000    0.0000 C.ar    1  UNL1       -0.0049
     18 C           6.3981    0.5000    0.0000 C.ar    1  UNL1       -0.0049
     19 C           3.7320    2.0208    0.0000 C.3     1  UNL1        0.0395
     20 C           9.0641   -2.0208    0.0000 C.3     1  UNL1        0.0395
     21 C           7.2641   -2.0000    0.0000 C.ar    1  UNL1        0.0634
     22 C           5.5320    2.0000    0.0000 C.ar    1  UNL1        0.0634
     23 C           7.2641    1.0000    0.0000 C.ar    1  UNL1        0.0006
     24 C           5.5320   -1.0000    0.0000 C.ar    1  UNL1        0.0006
     25 C           8.1580   -2.5347    0.0000 C.2     1  UNL1        0.1697
     26 C           4.6381    2.5347    0.0000 C.2     1  UNL1        0.1697
     27 C           5.5320   -2.0000    0.0000 C.ar    1  UNL1        0.0664
     28 C           7.2641    2.0000    0.0000 C.ar    1  UNL1        0.0664
     29 C           6.3981   -2.5000    0.0000 C.ar    1  UNL1        0.1388
     30 C           6.3981    2.5000    0.0000 C.ar    1  UNL1        0.1388
     31 C           3.2354    0.1112    0.0000 C.3     1  UNL1       -0.0354
     32 C           9.5608   -0.1112    0.0000 C.3     1  UNL1       -0.0354
     33 C           4.6381   -0.4653    0.0000 C.ar    1  UNL1       -0.0113
     34 C           8.1580    0.4653    0.0000 C.ar    1  UNL1       -0.0113
     35 C           8.1580    2.5347    0.0000 C.ar    1  UNL1        0.1315
     36 C           4.6381   -2.5347    0.0000 C.ar    1  UNL1        0.1315
     37 C           9.0641    0.9792    0.0000 C.ar    1  UNL1        0.1242
     38 C           3.7320   -0.9792    0.0000 C.ar    1  UNL1        0.1242
     39 C           3.7320   -2.0208    0.0000 C.ar    1  UNL1        0.0223
     40 C           9.0641    2.0208    0.0000 C.ar    1  UNL1        0.0223
     41 C          10.7961    0.9725    0.0000 C.3     1  UNL1        0.0788
     42 C           2.0000   -0.9725    0.0000 C.3     1  UNL1        0.0788
     43 H           4.2445   -0.0137    0.0000 H       1  UNL1        0.0341
     44 H           5.0427   -0.0044    0.0000 H       1  UNL1        0.0341
     45 H           8.5517    0.0137    0.0000 H       1  UNL1        0.0341
     46 H           7.7534    0.0044    0.0000 H       1  UNL1        0.0341
     47 H           3.5230    2.6045    0.0000 H       1  UNL1        0.0373
     48 H           3.1212    1.9147    0.0000 H       1  UNL1        0.0373
     49 H           9.2732   -2.6045    0.0000 H       1  UNL1        0.0373
     50 H           9.6750   -1.9147    0.0000 H       1  UNL1        0.0373
     51 H           2.6972    0.4192    0.0000 H       1  UNL1        0.0257
     52 H           2.9274   -0.4269    0.0000 H       1  UNL1        0.0257
     53 H          10.0989   -0.4192    0.0000 H       1  UNL1        0.0257
     54 H           9.8687    0.4269    0.0000 H       1  UNL1        0.0257
     55 H           9.0226    0.1967    0.0000 H       1  UNL1        0.0257
     56 H           3.7735   -0.1967    0.0000 H       1  UNL1        0.0257
     57 H           4.6453    0.1546    0.0000 H       1  UNL1        0.0660
     58 H           8.1509   -0.1546    0.0000 H       1  UNL1        0.0660
     59 H          10.3762   -1.5111    0.0000 H       1  UNL1        0.2102
     60 H           2.4200    1.5111    0.0000 H       1  UNL1        0.2102
     61 H           9.5998    2.3329    0.0000 H       1  UNL1        0.0691
     62 H           3.1963   -2.3329    0.0000 H       1  UNL1        0.0691
     63 H           5.8611   -3.8100    0.0000 H       1  UNL1        0.2922
     64 H           6.9350    3.8100    0.0000 H       1  UNL1        0.2922
     65 H           4.1164   -3.8508    0.0000 H       1  UNL1        0.2922
     66 H           8.6798    3.8508    0.0000 H       1  UNL1        0.2922
     67 H          11.1041    0.4344    0.0000 H       1  UNL1        0.0660
     68 H          11.3343    1.2804    0.0000 H       1  UNL1        0.0660
     69 H          10.4882    1.5106    0.0000 H       1  UNL1        0.0660
     70 H           1.6921   -0.4344    0.0000 H       1  UNL1        0.0660
     71 H           1.4619   -1.2804    0.0000 H       1  UNL1        0.0660
     72 H           2.3079   -1.5106    0.0000 H       1  UNL1        0.0660
@<TRIPOS>BOND
     1     1    11    1
     2     1    59    1
     3     2    12    1
     4     2    60    1
     5     3    29    1
     6     3    63    1
     7     4    30    1
     8     4    64    1
     9     5    25    2
    10     6    26    2
    11     7    36    1
    12     7    65    1
    13     8    35    1
    14     8    66    1
    15     9    38    1
    16     9    42    1
    17    10    37    1
    18    10    41    1
    19    11    16    1
    20    11    20    1
    21    11    32    1
    22    12    15    1
    23    12    19    1
    24    12    31    1
    25    13    16    1
    26    13    17   ar
    27    13    21   ar
    28    14    15    1
    29    14    18   ar
    30    14    22   ar
    31    15    43    1
    32    15    44    1
    33    16    45    1
    34    16    46    1
    35    17    18    1
    36    17    24   ar
    37    18    23   ar
    38    19    26    1
    39    19    47    1
    40    19    48    1
    41    20    25    1
    42    20    49    1
    43    20    50    1
    44    21    25    1
    45    21    29   ar
    46    22    26    1
    47    22    30   ar
    48    23    28   ar
    49    23    34   ar
    50    24    27   ar
    51    24    33   ar
    52    27    29   ar
    53    27    36   ar
    54    28    30   ar
    55    28    35   ar
    56    31    51    1
    57    31    52    1
    58    31    56    1
    59    32    53    1
    60    32    54    1
    61    32    55    1
    62    33    38   ar
    63    33    57    1
    64    34    37   ar
    65    34    58    1
    66    35    40   ar
    67    36    39   ar
    68    37    40   ar
    69    38    39   ar
    70    39    62    1
    71    40    61    1
    72    41    67    1
    73    41    68    1
    74    41    69    1
    75    42    70    1
    76    42    71    1
    77    42    72    1
