@<TRIPOS>MOLECULE
IMPHY006746
 92 92 0 0 0
SMALL
GASTEIGER

@<TRIPOS>ATOM
      1 O          24.1506    0.6340    0.0000 O.3     1  UNL1       -0.3673
      2 O          17.5885   -0.0000    0.0000 O.3     1  UNL1       -0.4441
      3 O          16.7224   -1.5000    0.0000 O.2     1  UNL1       -0.2508
      4 C          24.6506    1.5000    0.0000 C.3     1  UNL1        0.0862
      5 C          23.6506    1.5000    0.0000 C.3     1  UNL1        0.0960
      6 C          25.5167    2.0000    0.0000 C.3     1  UNL1       -0.0241
      7 C          26.3827    1.5000    0.0000 C.3     1  UNL1       -0.0506
      8 C          22.7846    2.0000    0.0000 C.3     1  UNL1        0.0388
      9 C          27.2487    2.0000    0.0000 C.3     1  UNL1       -0.0530
     10 C          28.1147    1.5000    0.0000 C.3     1  UNL1       -0.0531
     11 C          28.9808    2.0000    0.0000 C.3     1  UNL1       -0.0533
     12 C          21.9186    1.5000    0.0000 C.1     1  UNL1       -0.0858
     13 C          29.8468    1.5000    0.0000 C.3     1  UNL1       -0.0559
     14 C          21.0526    1.0000    0.0000 C.1     1  UNL1       -0.0146
     15 C          30.7128    2.0000    0.0000 C.3     1  UNL1       -0.0653
     16 C          13.2583   -0.5000    0.0000 C.3     1  UNL1       -0.0530
     17 C          12.3923   -0.0000    0.0000 C.3     1  UNL1       -0.0528
     18 C          14.1244   -0.0000    0.0000 C.3     1  UNL1       -0.0526
     19 C          11.5263   -0.5000    0.0000 C.3     1  UNL1       -0.0496
     20 C          20.1865    0.5000    0.0000 C.1     1  UNL1       -0.0109
     21 C          14.9904   -0.5000    0.0000 C.3     1  UNL1       -0.0430
     22 C          10.6603   -0.0000    0.0000 C.3     1  UNL1       -0.0348
     23 C          15.8564   -0.0000    0.0000 C.3     1  UNL1        0.0450
     24 C          19.3205   -0.0000    0.0000 C.1     1  UNL1       -0.0400
     25 C           9.7942   -0.5000    0.0000 C.2     1  UNL1       -0.0876
     26 C          18.4545   -0.5000    0.0000 C.3     1  UNL1        0.1821
     27 C          16.7224   -0.5000    0.0000 C.2     1  UNL1        0.3085
     28 C           4.5981   -0.5000    0.0000 C.3     1  UNL1       -0.0496
     29 C           8.9282   -0.0000    0.0000 C.2     1  UNL1       -0.0842
     30 C           3.7320   -0.0000    0.0000 C.3     1  UNL1       -0.0530
     31 C           5.4641   -0.0000    0.0000 C.3     1  UNL1       -0.0348
     32 C           8.0622   -0.5000    0.0000 C.3     1  UNL1       -0.0165
     33 C           2.8660   -0.5000    0.0000 C.3     1  UNL1       -0.0559
     34 C           6.3301   -0.5000    0.0000 C.2     1  UNL1       -0.0876
     35 C           7.1962   -0.0000    0.0000 C.2     1  UNL1       -0.0842
     36 C          18.4545   -1.5000    0.0000 C.2     1  UNL1       -0.0389
     37 C           2.0000   -0.0000    0.0000 C.3     1  UNL1       -0.0653
     38 C          19.3205   -2.0000    0.0000 C.2     1  UNL1       -0.0982
     39 H          25.0890    1.0616    0.0000 H       1  UNL1        0.0622
     40 H          23.2122    1.0616    0.0000 H       1  UNL1        0.0631
     41 H          25.9152    2.4750    0.0000 H       1  UNL1        0.0291
     42 H          25.1181    2.4750    0.0000 H       1  UNL1        0.0291
     43 H          25.9842    1.0250    0.0000 H       1  UNL1        0.0266
     44 H          26.7812    1.0250    0.0000 H       1  UNL1        0.0266
     45 H          23.1831    2.4750    0.0000 H       1  UNL1        0.0424
     46 H          22.3861    2.4750    0.0000 H       1  UNL1        0.0424
     47 H          27.6472    2.4750    0.0000 H       1  UNL1        0.0265
     48 H          26.8502    2.4750    0.0000 H       1  UNL1        0.0265
     49 H          27.7162    1.0250    0.0000 H       1  UNL1        0.0265
     50 H          28.5133    1.0250    0.0000 H       1  UNL1        0.0265
     51 H          29.3793    2.4750    0.0000 H       1  UNL1        0.0265
     52 H          28.5822    2.4750    0.0000 H       1  UNL1        0.0265
     53 H          29.4483    1.0250    0.0000 H       1  UNL1        0.0263
     54 H          30.2453    1.0250    0.0000 H       1  UNL1        0.0263
     55 H          31.0228    1.4631    0.0000 H       1  UNL1        0.0230
     56 H          31.2497    2.3100    0.0000 H       1  UNL1        0.0230
     57 H          30.4028    2.5369    0.0000 H       1  UNL1        0.0230
     58 H          12.8598   -0.9749    0.0000 H       1  UNL1        0.0265
     59 H          13.6569   -0.9749    0.0000 H       1  UNL1        0.0265
     60 H          12.7908    0.4749    0.0000 H       1  UNL1        0.0265
     61 H          11.9938    0.4749    0.0000 H       1  UNL1        0.0265
     62 H          14.5229    0.4749    0.0000 H       1  UNL1        0.0265
     63 H          13.7258    0.4749    0.0000 H       1  UNL1        0.0265
     64 H          11.1278   -0.9749    0.0000 H       1  UNL1        0.0268
     65 H          11.9248   -0.9749    0.0000 H       1  UNL1        0.0268
     66 H          14.5919   -0.9749    0.0000 H       1  UNL1        0.0270
     67 H          15.3889   -0.9749    0.0000 H       1  UNL1        0.0270
     68 H          11.0588    0.4749    0.0000 H       1  UNL1        0.0307
     69 H          10.2617    0.4749    0.0000 H       1  UNL1        0.0307
     70 H          16.2549    0.4749    0.0000 H       1  UNL1        0.0377
     71 H          15.4579    0.4749    0.0000 H       1  UNL1        0.0377
     72 H           9.7942   -1.1200    0.0000 H       1  UNL1        0.0569
     73 H          18.4545    0.1200    0.0000 H       1  UNL1        0.0921
     74 H           4.1996   -0.9749    0.0000 H       1  UNL1        0.0268
     75 H           4.9966   -0.9749    0.0000 H       1  UNL1        0.0268
     76 H           4.1306    0.4749    0.0000 H       1  UNL1        0.0265
     77 H           3.3335    0.4749    0.0000 H       1  UNL1        0.0265
     78 H           8.9282    0.6200    0.0000 H       1  UNL1        0.0572
     79 H           5.8626    0.4749    0.0000 H       1  UNL1        0.0307
     80 H           5.0656    0.4749    0.0000 H       1  UNL1        0.0307
     81 H           7.6636   -0.9749    0.0000 H       1  UNL1        0.0350
     82 H           8.4607   -0.9749    0.0000 H       1  UNL1        0.0350
     83 H           2.4675   -0.9749    0.0000 H       1  UNL1        0.0263
     84 H           3.2646   -0.9749    0.0000 H       1  UNL1        0.0263
     85 H           6.3301   -1.1200    0.0000 H       1  UNL1        0.0569
     86 H           7.1962    0.6200    0.0000 H       1  UNL1        0.0572
     87 H          17.9175   -1.8100    0.0000 H       1  UNL1        0.0613
     88 H           2.3100    0.5369    0.0000 H       1  UNL1        0.0230
     89 H           1.4631    0.3100    0.0000 H       1  UNL1        0.0230
     90 H           1.6900   -0.5369    0.0000 H       1  UNL1        0.0230
     91 H          19.3205   -2.6200    0.0000 H       1  UNL1        0.0533
     92 H          19.8574   -1.6900    0.0000 H       1  UNL1        0.0533
@<TRIPOS>BOND
     1     1     4    1
     2     1     5    1
     3     2    26    1
     4     2    27    1
     5     3    27    2
     6     4     5    1
     7     4     6    1
     8     4    39    1
     9     5     8    1
    10     5    40    1
    11     6     7    1
    12     6    41    1
    13     6    42    1
    14     7     9    1
    15     7    43    1
    16     7    44    1
    17     8    12    1
    18     8    45    1
    19     8    46    1
    20     9    10    1
    21     9    47    1
    22     9    48    1
    23    10    11    1
    24    10    49    1
    25    10    50    1
    26    11    13    1
    27    11    51    1
    28    11    52    1
    29    12    14    3
    30    13    15    1
    31    13    53    1
    32    13    54    1
    33    14    20    1
    34    15    55    1
    35    15    56    1
    36    15    57    1
    37    16    17    1
    38    16    18    1
    39    16    58    1
    40    16    59    1
    41    17    19    1
    42    17    60    1
    43    17    61    1
    44    18    21    1
    45    18    62    1
    46    18    63    1
    47    19    22    1
    48    19    64    1
    49    19    65    1
    50    20    24    3
    51    21    23    1
    52    21    66    1
    53    21    67    1
    54    22    25    1
    55    22    68    1
    56    22    69    1
    57    23    27    1
    58    23    70    1
    59    23    71    1
    60    24    26    1
    61    25    29    2
    62    25    72    1
    63    26    36    1
    64    26    73    1
    65    28    30    1
    66    28    31    1
    67    28    74    1
    68    28    75    1
    69    29    32    1
    70    29    78    1
    71    30    33    1
    72    30    76    1
    73    30    77    1
    74    31    34    1
    75    31    79    1
    76    31    80    1
    77    32    35    1
    78    32    81    1
    79    32    82    1
    80    33    37    1
    81    33    83    1
    82    33    84    1
    83    34    35    2
    84    34    85    1
    85    35    86    1
    86    36    38    2
    87    36    87    1
    88    37    88    1
    89    37    89    1
    90    37    90    1
    91    38    91    1
    92    38    92    1
