@<TRIPOS>MOLECULE
IMPHY007843
 48 52 0 0 0
SMALL
GASTEIGER

@<TRIPOS>ATOM
      1 O           5.2308    0.3935    0.0000 O.3     1  UNL1       -0.4570
      2 O           2.2862   -0.7071    0.0000 O.3     1  UNL1       -0.3907
      3 O           2.8090    0.9501    0.0000 O.2     1  UNL1       -0.2501
      4 O           6.3076    1.6219    0.0000 O.3     1  UNL1       -0.4804
      5 O           4.5817    1.4764    0.0000 O.2     1  UNL1       -0.2507
      6 C           6.2989   -0.4947    0.0000 C.3     1  UNL1       -0.0053
      7 C           5.0849   -1.3404    0.0000 C.3     1  UNL1        0.1216
      8 C           5.9970   -1.3619    0.0000 C.3     1  UNL1        0.0061
      9 C           4.8219   -0.4664    0.0000 C.3     1  UNL1        0.0305
     10 C           5.5707    0.0545    0.0000 C.3     1  UNL1        0.0701
     11 C           3.9046   -0.2503    0.0000 C.3     1  UNL1        0.0978
     12 C           6.9949   -1.3272    0.0000 C.3     1  UNL1       -0.0394
     13 C           7.1658   -0.1901    0.0000 C.3     1  UNL1       -0.0249
     14 C           6.4872   -2.1385    0.0000 C.3     1  UNL1       -0.0455
     15 C           8.0478   -1.5897    0.0000 C.3     1  UNL1       -0.0196
     16 C           4.4471   -2.0549    0.0000 C.3     1  UNL1       -0.0098
     17 C           3.2595   -0.9365    0.0000 C.3     1  UNL1        0.0712
     18 C           7.3995   -2.2397    0.0000 C.3     1  UNL1       -0.0461
     19 C           7.9434   -0.6771    0.0000 C.2     1  UNL1       -0.0730
     20 C           3.5310   -1.8392    0.0000 C.3     1  UNL1       -0.0222
     21 C           3.6398    0.3935    0.0000 C.2     1  UNL1        0.3165
     22 C           5.4867    1.0509    0.0000 C.2     1  UNL1        0.3088
     23 C           2.9212   -0.0692    0.0000 C.3     1  UNL1       -0.0466
     24 C           8.7470   -0.0820    0.0000 C.2     1  UNL1       -0.0992
     25 H           5.5778   -2.1014    0.0000 H       1  UNL1        0.0345
     26 H           4.3868    0.2639    0.0000 H       1  UNL1        0.0359
     27 H           6.1135    0.3541    0.0000 H       1  UNL1        0.0423
     28 H           7.0378   -1.9457    0.0000 H       1  UNL1        0.0277
     29 H           6.4198   -1.5587    0.0000 H       1  UNL1        0.0277
     30 H           6.8352    0.3344    0.0000 H       1  UNL1        0.0316
     31 H           7.6036    0.2489    0.0000 H       1  UNL1        0.0316
     32 H           6.5578   -2.7544    0.0000 H       1  UNL1        0.0270
     33 H           5.9024   -2.3444    0.0000 H       1  UNL1        0.0270
     34 H           8.8505   -1.8692    0.0000 H       1  UNL1        0.0346
     35 H           4.9715   -2.3858    0.0000 H       1  UNL1        0.0305
     36 H           4.2074   -2.6267    0.0000 H       1  UNL1        0.0305
     37 H           2.8346   -1.3880    0.0000 H       1  UNL1        0.0604
     38 H           7.9250   -2.5688    0.0000 H       1  UNL1        0.0271
     39 H           7.1956   -2.8253    0.0000 H       1  UNL1        0.0271
     40 H           3.4958   -2.4582    0.0000 H       1  UNL1        0.0292
     41 H           2.9152   -1.9120    0.0000 H       1  UNL1        0.0292
     42 H           2.8088   -0.6789    0.0000 H       1  UNL1        0.0241
     43 H           2.3114    0.0432    0.0000 H       1  UNL1        0.0241
     44 H           3.0335    0.5406    0.0000 H       1  UNL1        0.0241
     45 H           8.6766    0.5340    0.0000 H       1  UNL1        0.0534
     46 H           9.3157   -0.3290    0.0000 H       1  UNL1        0.0534
     47 H           1.8612   -1.1586    0.0000 H       1  UNL1        0.2098
     48 H           6.2556    2.2397    0.0000 H       1  UNL1        0.2951
@<TRIPOS>BOND
     1     7     1    1
     2     1    21    1
     3    17     2    1
     4     2    47    1
     5     3    21    2
     6     4    22    1
     7     4    48    1
     8     5    22    2
     9     6     8    1
    10     6    10    1
    11     6    12    1
    12     6    13    1
    13     7     8    1
    14     7     9    1
    15     7    16    1
    16     8    14    1
    17     8    25    1
    18     9    10    1
    19     9    11    1
    20     9    26    1
    21    10    22    1
    22    10    27    1
    23    11    17    1
    24    11    21    1
    25    11    23    1
    26    12    15    1
    27    12    28    1
    28    12    29    1
    29    13    19    1
    30    13    30    1
    31    13    31    1
    32    14    18    1
    33    14    32    1
    34    14    33    1
    35    15    18    1
    36    15    19    1
    37    15    34    1
    38    16    20    1
    39    16    35    1
    40    16    36    1
    41    17    20    1
    42    17    37    1
    43    18    38    1
    44    18    39    1
    45    19    24    2
    46    20    40    1
    47    20    41    1
    48    23    42    1
    49    23    43    1
    50    23    44    1
    51    24    45    1
    52    24    46    1
