@<TRIPOS>MOLECULE
IMPHY002888
 17 17 0 0 0
SMALL
GASTEIGER

@<TRIPOS>ATOM
      1 F           6.0010   -1.7500    0.0000 F       1  UNL1       -0.2054
      2 O           4.2690    1.2500    0.0000 O.3     1  UNL1       -0.4914
      3 O           2.5369    0.2500    0.0000 O.3     1  UNL1       -0.5033
      4 C           4.2690    0.2500    0.0000 C.ar    1  UNL1        0.1640
      5 C           3.4030   -0.2500    0.0000 C.ar    1  UNL1        0.1586
      6 C           5.1350   -0.2500    0.0000 C.ar    1  UNL1        0.0189
      7 C           3.4030   -1.2500    0.0000 C.ar    1  UNL1       -0.0138
      8 C           5.1350   -1.2500    0.0000 C.ar    1  UNL1        0.1271
      9 C           4.2690   -1.7500    0.0000 C.ar    1  UNL1       -0.0228
     10 C           5.1350    1.7500    0.0000 C.3     1  UNL1        0.0790
     11 H           5.6720    0.0600    0.0000 H       1  UNL1        0.0684
     12 H           2.8660   -1.5600    0.0000 H       1  UNL1        0.0656
     13 H           4.2690   -2.3700    0.0000 H       1  UNL1        0.0647
     14 H           5.4450    1.2131    0.0000 H       1  UNL1        0.0660
     15 H           5.6720    2.0600    0.0000 H       1  UNL1        0.0660
     16 H           4.8250    2.2869    0.0000 H       1  UNL1        0.0660
     17 H           2.0000   -0.0600    0.0000 H       1  UNL1        0.2923
@<TRIPOS>BOND
     1     1     8    1
     2     2     4    1
     3     2    10    1
     4     3     5    1
     5     3    17    1
     6     4     5   ar
     7     4     6   ar
     8     5     7   ar
     9     6     8   ar
    10     6    11    1
    11     7     9   ar
    12     7    12    1
    13     8     9   ar
    14     9    13    1
    15    10    14    1
    16    10    15    1
    17    10    16    1
