@<TRIPOS>MOLECULE
IMPHY007869
 41 43 0 0 0
SMALL
GASTEIGER

@<TRIPOS>ATOM
      1 O           6.3580   -1.9917    0.0000 O.2     1  UNL1       -0.4618
      2 O           2.8660    0.0429    0.0000 O.3     1  UNL1       -0.4885
      3 O           4.5981    1.0429    0.0000 O.3     1  UNL1       -0.5027
      4 O           6.3465    1.0775    0.0000 O.2     1  UNL1       -0.2863
      5 O          10.7282   -0.4229    0.0000 O.3     1  UNL1       -0.4914
      6 O          10.7205    1.5771    0.0000 O.3     1  UNL1       -0.4915
      7 O           2.8660   -1.9571    0.0000 O.3     1  UNL1       -0.5031
      8 C           5.4641   -0.4571    0.0000 C.ar    1  UNL1        0.1097
      9 C           7.2641   -0.4363    0.0000 C.ar    1  UNL1        0.0645
     10 C           5.4641   -1.4571    0.0000 C.ar    1  UNL1        0.1456
     11 C           6.3580    0.0776    0.0000 C.ar    1  UNL1        0.2038
     12 C           8.1282    0.0671    0.0000 C.ar    1  UNL1       -0.0076
     13 C           4.5981    0.0429    0.0000 C.ar    1  UNL1        0.1768
     14 C           7.2641   -1.4779    0.0000 C.ar    1  UNL1        0.1038
     15 C           3.7320   -0.4571    0.0000 C.ar    1  UNL1        0.2040
     16 C           4.5981   -1.9571    0.0000 C.ar    1  UNL1        0.0267
     17 C           8.9962   -0.4296    0.0000 C.ar    1  UNL1       -0.0084
     18 C           3.7320   -1.4571    0.0000 C.ar    1  UNL1        0.1657
     19 C           8.1244    1.0671    0.0000 C.ar    1  UNL1       -0.0501
     20 C           9.8602    0.0738    0.0000 C.ar    1  UNL1        0.1621
     21 C           9.8564    1.0738    0.0000 C.ar    1  UNL1        0.1615
     22 C           8.9884    1.5704    0.0000 C.ar    1  UNL1       -0.0157
     23 C           2.0000   -0.4571    0.0000 C.3     1  UNL1        0.0791
     24 C          10.7320   -1.4229    0.0000 C.3     1  UNL1        0.0790
     25 C          10.7166    2.5771    0.0000 C.3     1  UNL1        0.0790
     26 H           7.7998   -1.7900    0.0000 H       1  UNL1        0.1037
     27 H           4.5981   -2.5771    0.0000 H       1  UNL1        0.0692
     28 H           8.9985   -1.0496    0.0000 H       1  UNL1        0.0661
     29 H           7.5862    1.3750    0.0000 H       1  UNL1        0.0625
     30 H           8.9860    2.1904    0.0000 H       1  UNL1        0.0655
     31 H           4.0611    1.3529    0.0000 H       1  UNL1        0.2923
     32 H           2.8660   -2.5771    0.0000 H       1  UNL1        0.2923
     33 H           1.6900    0.0799    0.0000 H       1  UNL1        0.0660
     34 H           1.4631   -0.7671    0.0000 H       1  UNL1        0.0660
     35 H           2.3100   -0.9940    0.0000 H       1  UNL1        0.0660
     36 H          10.1120   -1.4253    0.0000 H       1  UNL1        0.0660
     37 H          10.7344   -2.0429    0.0000 H       1  UNL1        0.0660
     38 H          11.3520   -1.4205    0.0000 H       1  UNL1        0.0660
     39 H          11.3366    2.5795    0.0000 H       1  UNL1        0.0660
     40 H          10.7142    3.1971    0.0000 H       1  UNL1        0.0660
     41 H          10.0966    2.5747    0.0000 H       1  UNL1        0.0660
@<TRIPOS>BOND
     1     1    10   ar
     2     1    14   ar
     3     2    15    1
     4     2    23    1
     5     3    13    1
     6     3    31    1
     7     4    11    2
     8     5    20    1
     9     5    24    1
    10     6    21    1
    11     6    25    1
    12     7    18    1
    13     7    32    1
    14     8    10   ar
    15     8    11   ar
    16     8    13   ar
    17     9    11   ar
    18     9    12    1
    19     9    14   ar
    20    10    16   ar
    21    12    17   ar
    22    12    19   ar
    23    13    15   ar
    24    14    26    1
    25    15    18   ar
    26    16    18   ar
    27    16    27    1
    28    17    20   ar
    29    17    28    1
    30    19    22   ar
    31    19    29    1
    32    20    21   ar
    33    21    22   ar
    34    22    30    1
    35    23    33    1
    36    23    34    1
    37    23    35    1
    38    24    36    1
    39    24    37    1
    40    24    38    1
    41    25    39    1
    42    25    40    1
    43    25    41    1
