@<TRIPOS>MOLECULE
IMPHY014924
 49 51 0 0 0
SMALL
GASTEIGER

@<TRIPOS>ATOM
      1 S           6.0010   -0.7342    0.0000 S.3     1  UNL1       -0.0725
      2 S           8.5991    0.7658    0.0000 S.O2    1  UNL1        0.2709
      3 O           4.2690   -0.7342    0.0000 O.3     1  UNL1       -0.3549
      4 O           4.2690   -3.7342    0.0000 O.3     1  UNL1       -0.3865
      5 O           2.5369   -2.7342    0.0000 O.3     1  UNL1       -0.3865
      6 O           6.0010   -2.7342    0.0000 O.3     1  UNL1       -0.3857
      7 O           2.5369    0.2658    0.0000 O.3     1  UNL1       -0.3924
      8 O           7.7331    0.2658    0.0000 O.2     1  UNL1       -0.2068
      9 O           8.0991    1.6318    0.0000 O.3     1  UNL1       -0.2209
     10 O           9.4651    1.2658    0.0000 O.2     1  UNL1       -0.1060
     11 O           9.0991   -0.1002    0.0000 O.2     1  UNL1       -0.1060
     12 N           5.6350    3.2956    0.0000 N.ar    1  UNL1       -0.3604
     13 N           6.8671    0.7658    0.0000 N.2     1  UNL1       -0.0479
     14 C           4.2690   -2.7342    0.0000 C.3     1  UNL1        0.1126
     15 C           3.4030   -2.2342    0.0000 C.3     1  UNL1        0.1118
     16 C           5.1350   -2.2342    0.0000 C.3     1  UNL1        0.1192
     17 C           3.4030   -1.2342    0.0000 C.3     1  UNL1        0.1115
     18 C           5.1350   -1.2342    0.0000 C.3     1  UNL1        0.1384
     19 C           2.5369   -0.7342    0.0000 C.3     1  UNL1        0.0730
     20 C           6.0010    0.2658    0.0000 C.2     1  UNL1        0.1225
     21 C           5.1350    0.7658    0.0000 C.3     1  UNL1        0.0263
     22 C           5.1350    1.7658    0.0000 C.ar    1  UNL1       -0.0160
     23 C           4.3303    2.3494    0.0000 C.ar    1  UNL1        0.0032
     24 C           4.6409    3.2999    0.0000 C.ar    1  UNL1        0.0467
     25 C           5.9397    2.3494    0.0000 C.ar    1  UNL1        0.0063
     26 C           3.3518    2.1432    0.0000 C.ar    1  UNL1       -0.0523
     27 C           3.9731    4.0442    0.0000 C.ar    1  UNL1       -0.0378
     28 C           2.6839    2.8875    0.0000 C.ar    1  UNL1       -0.0611
     29 C           2.9946    3.8380    0.0000 C.ar    1  UNL1       -0.0598
     30 H           4.8059   -3.0442    0.0000 H       1  UNL1        0.0647
     31 H           3.4030   -2.8542    0.0000 H       1  UNL1        0.0647
     32 H           5.6720   -1.9242    0.0000 H       1  UNL1        0.0655
     33 H           3.4030   -0.6142    0.0000 H       1  UNL1        0.0646
     34 H           5.1350   -0.6142    0.0000 H       1  UNL1        0.0743
     35 H           1.9264   -0.6266    0.0000 H       1  UNL1        0.0584
     36 H           2.3249   -1.3168    0.0000 H       1  UNL1        0.0584
     37 H           3.7320   -4.0442    0.0000 H       1  UNL1        0.2100
     38 H           2.0000   -2.4242    0.0000 H       1  UNL1        0.2100
     39 H           6.5380   -2.4242    0.0000 H       1  UNL1        0.2100
     40 H           4.5244    0.8734    0.0000 H       1  UNL1        0.0384
     41 H           4.9230    0.1832    0.0000 H       1  UNL1        0.0384
     42 H           2.0000    0.5758    0.0000 H       1  UNL1        0.2095
     43 H           6.5291    2.1568    0.0000 H       1  UNL1        0.0810
     44 H           6.0012    3.7959    0.0000 H       1  UNL1        0.1653
     45 H           3.1592    1.5538    0.0000 H       1  UNL1        0.0624
     46 H           4.1657    4.6335    0.0000 H       1  UNL1        0.0638
     47 H           2.0773    2.7596    0.0000 H       1  UNL1        0.0618
     48 H           2.5805    4.2995    0.0000 H       1  UNL1        0.0618
     49 H           8.4091    2.1688    0.0000 H       1  UNL1        0.2480
@<TRIPOS>BOND
     1    18     1    1
     2     1    20    1
     3     2     8    1
     4     2     9    1
     5     2    10    2
     6     2    11    2
     7     3    17    1
     8     3    18    1
     9    14     4    1
    10     4    37    1
    11    15     5    1
    12     5    38    1
    13    16     6    1
    14     6    39    1
    15     7    19    1
    16     7    42    1
    17     8    13    1
    18     9    49    1
    19    12    24   ar
    20    12    25   ar
    21    12    44    1
    22    13    20    2
    23    14    15    1
    24    14    16    1
    25    14    30    1
    26    15    17    1
    27    15    31    1
    28    16    18    1
    29    16    32    1
    30    17    19    1
    31    17    33    1
    32    18    34    1
    33    19    35    1
    34    19    36    1
    35    20    21    1
    36    21    22    1
    37    21    40    1
    38    21    41    1
    39    22    23   ar
    40    22    25   ar
    41    23    24   ar
    42    23    26   ar
    43    24    27   ar
    44    25    43    1
    45    26    28   ar
    46    26    45    1
    47    27    29   ar
    48    27    46    1
    49    28    29   ar
    50    28    47    1
    51    29    48    1
