@<TRIPOS>MOLECULE
IMPHY004481
 36 38 0 0 0
SMALL
GASTEIGER

@<TRIPOS>ATOM
      1 O           6.0682   -0.9777    0.0000 O.2     1  UNL1       -0.4583
      2 O           4.3198   -2.0123    0.0000 O.3     1  UNL1       -0.4885
      3 O           6.0682    2.0223    0.0000 O.2     1  UNL1       -0.2864
      4 O           2.5381   -1.0019    0.0000 O.3     1  UNL1       -0.5032
      5 O          10.3984    2.5223    0.0000 O.3     1  UNL1       -0.4951
      6 C           5.2022    0.5223    0.0000 C.ar    1  UNL1        0.0684
      7 C           6.9343    0.5223    0.0000 C.ar    1  UNL1        0.0643
      8 C           5.2022   -0.4777    0.0000 C.ar    1  UNL1        0.1834
      9 C           6.0682    1.0223    0.0000 C.ar    1  UNL1        0.2003
     10 C           7.8003    1.0223    0.0000 C.ar    1  UNL1       -0.0110
     11 C           4.3083   -1.0124    0.0000 C.ar    1  UNL1        0.2046
     12 C           4.3083    1.0570    0.0000 C.ar    1  UNL1       -0.0437
     13 C           6.9343   -0.4777    0.0000 C.ar    1  UNL1        0.1040
     14 C           3.4022   -0.4985    0.0000 C.ar    1  UNL1        0.1622
     15 C           3.4022    0.5431    0.0000 C.ar    1  UNL1       -0.0156
     16 C           7.8003    2.0223    0.0000 C.ar    1  UNL1       -0.0504
     17 C           8.6663    0.5223    0.0000 C.ar    1  UNL1       -0.0504
     18 C           8.6663    2.5223    0.0000 C.ar    1  UNL1       -0.0194
     19 C           9.5323    1.0223    0.0000 C.ar    1  UNL1       -0.0194
     20 C           9.5323    2.0223    0.0000 C.ar    1  UNL1        0.1201
     21 C           3.4597   -2.5223    0.0000 C.3     1  UNL1        0.0791
     22 C          11.2644    2.0223    0.0000 C.3     1  UNL1        0.0788
     23 H           4.3154    1.6769    0.0000 H       1  UNL1        0.0627
     24 H           7.4712   -0.7877    0.0000 H       1  UNL1        0.1037
     25 H           2.8665    0.8552    0.0000 H       1  UNL1        0.0655
     26 H           7.2634    2.3323    0.0000 H       1  UNL1        0.0625
     27 H           8.6663   -0.0977    0.0000 H       1  UNL1        0.0625
     28 H           8.6663    3.1423    0.0000 H       1  UNL1        0.0654
     29 H          10.0693    0.7123    0.0000 H       1  UNL1        0.0654
     30 H           2.0000   -0.6939    0.0000 H       1  UNL1        0.2923
     31 H           3.1435   -1.9890    0.0000 H       1  UNL1        0.0660
     32 H           2.9263   -2.8385    0.0000 H       1  UNL1        0.0660
     33 H           3.7758   -3.0556    0.0000 H       1  UNL1        0.0660
     34 H          10.9544    1.4854    0.0000 H       1  UNL1        0.0660
     35 H          11.8013    1.7123    0.0000 H       1  UNL1        0.0660
     36 H          11.5744    2.5592    0.0000 H       1  UNL1        0.0660
@<TRIPOS>BOND
     1     1     8   ar
     2     1    13   ar
     3     2    11    1
     4     2    21    1
     5     3     9    2
     6     4    14    1
     7     4    30    1
     8     5    20    1
     9     5    22    1
    10     6     8   ar
    11     6     9   ar
    12     6    12   ar
    13     7     9   ar
    14     7    10    1
    15     7    13   ar
    16     8    11   ar
    17    10    16   ar
    18    10    17   ar
    19    11    14   ar
    20    12    15   ar
    21    12    23    1
    22    13    24    1
    23    14    15   ar
    24    15    25    1
    25    16    18   ar
    26    16    26    1
    27    17    19   ar
    28    17    27    1
    29    18    20   ar
    30    18    28    1
    31    19    20   ar
    32    19    29    1
    33    21    31    1
    34    21    32    1
    35    21    33    1
    36    22    34    1
    37    22    35    1
    38    22    36    1
