@<TRIPOS>MOLECULE
IMPHY015140
 37 38 0 0 0
SMALL
GASTEIGER

@<TRIPOS>ATOM
      1 O           2.0000   -0.6432    0.0000 O.2     1  UNL1       -0.2960
      2 C           5.4641    0.3568    0.0000 C.3     1  UNL1       -0.0267
      3 C           5.4641   -0.6432    0.0000 C.3     1  UNL1       -0.0101
      4 C           6.3580    0.8915    0.0000 C.3     1  UNL1       -0.0313
      5 C           6.3580   -1.1779    0.0000 C.3     1  UNL1       -0.0439
      6 C           7.2641    0.3776    0.0000 C.3     1  UNL1       -0.0476
      7 C           4.5981    0.8568    0.0000 C.3     1  UNL1       -0.0449
      8 C           7.2641   -0.6640    0.0000 C.3     1  UNL1       -0.0518
      9 C           4.5981   -1.1432    0.0000 C.2     1  UNL1       -0.0716
     10 C           5.4641   -1.6432    0.0000 C.3     1  UNL1       -0.0558
     11 C           6.8480    1.7632    0.0000 C.3     1  UNL1       -0.0595
     12 C           5.8481    1.7516    0.0000 C.3     1  UNL1       -0.0595
     13 C           3.7320    0.3568    0.0000 C.3     1  UNL1       -0.0246
     14 C           3.7320   -0.6432    0.0000 C.2     1  UNL1       -0.0116
     15 C           2.8660   -1.1432    0.0000 C.2     1  UNL1        0.1460
     16 H           5.4576    1.2068    0.0000 H       1  UNL1        0.0314
     17 H           5.9534   -1.6476    0.0000 H       1  UNL1        0.0274
     18 H           6.7517   -1.6569    0.0000 H       1  UNL1        0.0274
     19 H           7.8750    0.2715    0.0000 H       1  UNL1        0.0271
     20 H           7.4732    0.9613    0.0000 H       1  UNL1        0.0271
     21 H           4.9966    1.3317    0.0000 H       1  UNL1        0.0271
     22 H           4.1996    1.3317    0.0000 H       1  UNL1        0.0271
     23 H           7.4732   -1.2477    0.0000 H       1  UNL1        0.0266
     24 H           7.8750   -0.5579    0.0000 H       1  UNL1        0.0266
     25 H           4.5981   -1.7632    0.0000 H       1  UNL1        0.0581
     26 H           4.8441   -1.6432    0.0000 H       1  UNL1        0.0238
     27 H           5.4641   -2.2632    0.0000 H       1  UNL1        0.0238
     28 H           6.0841   -1.6432    0.0000 H       1  UNL1        0.0238
     29 H           7.3885    1.4594    0.0000 H       1  UNL1        0.0235
     30 H           7.1518    2.3037    0.0000 H       1  UNL1        0.0235
     31 H           6.3075    2.0670    0.0000 H       1  UNL1        0.0235
     32 H           6.3814    2.0678    0.0000 H       1  UNL1        0.0235
     33 H           5.5319    2.2850    0.0000 H       1  UNL1        0.0235
     34 H           5.3148    1.4354    0.0000 H       1  UNL1        0.0235
     35 H           3.5200    0.9394    0.0000 H       1  UNL1        0.0314
     36 H           3.1215    0.2491    0.0000 H       1  UNL1        0.0314
     37 H           2.8660   -1.7632    0.0000 H       1  UNL1        0.1078
@<TRIPOS>BOND
     1     1    15    2
     2     2     3    1
     3     2     4    1
     4     2     7    1
     5     2    16    1
     6     3     5    1
     7     3     9    1
     8     3    10    1
     9     4     6    1
    10     4    11    1
    11     4    12    1
    12     5     8    1
    13     5    17    1
    14     5    18    1
    15     6     8    1
    16     6    19    1
    17     6    20    1
    18     7    13    1
    19     7    21    1
    20     7    22    1
    21     8    23    1
    22     8    24    1
    23     9    14    2
    24     9    25    1
    25    10    26    1
    26    10    27    1
    27    10    28    1
    28    11    29    1
    29    11    30    1
    30    11    31    1
    31    12    32    1
    32    12    33    1
    33    12    34    1
    34    13    14    1
    35    13    35    1
    36    13    36    1
    37    14    15    1
    38    15    37    1
