@<TRIPOS>MOLECULE
IMPHY009062
 68 74 0 0 0
SMALL
GASTEIGER

@<TRIPOS>ATOM
      1 O           6.4276   -2.7504    0.0000 O.3     1  UNL1       -0.3274
      2 O           6.9595   -3.7223    0.0000 O.3     1  UNL1       -0.4495
      3 O           3.7184   -3.5330    0.0000 O.3     1  UNL1       -0.4539
      4 O           7.9899   -1.1454    0.0000 O.3     1  UNL1       -0.3751
      5 O           3.9784    0.8634    0.0000 O.3     1  UNL1       -0.3585
      6 O           3.6860   -0.4476    0.0000 O.2     1  UNL1       -0.2913
      7 O           8.9990   -2.6857    0.0000 O.2     1  UNL1       -0.2474
      8 O           4.0759    1.8886    0.0000 O.3     1  UNL1       -0.3873
      9 O           2.0000   -3.2067    0.0000 O.2     1  UNL1       -0.2453
     10 O           8.7131    0.9996    0.0000 O.2     1  UNL1       -0.2918
     11 C           6.1105   -1.8294    0.0000 C.3     1  UNL1        0.1650
     12 C           5.1708   -1.4874    0.0000 C.3     1  UNL1        0.0688
     13 C           5.7694   -2.8136    0.0000 C.3     1  UNL1        0.1799
     14 C           7.0502   -1.4874    0.0000 C.3     1  UNL1        0.1959
     15 C           4.1423   -1.6524    0.0000 C.3     1  UNL1        0.0152
     16 C           4.6460   -3.1437    0.0000 C.3     1  UNL1        0.1463
     17 C           4.8444    0.3634    0.0000 C.3     1  UNL1        0.2347
     18 C           3.8775   -2.4871    0.0000 C.3     1  UNL1       -0.0014
     19 C           5.6105    1.0062    0.0000 C.3     1  UNL1        0.0540
     20 C           4.6708   -0.6214    0.0000 C.2     1  UNL1        0.1990
     21 C           6.6105    1.0062    0.0000 C.3     1  UNL1       -0.0139
     22 C           7.5502   -0.6214    0.0000 C.3     1  UNL1       -0.0102
     23 C           7.3765    0.3634    0.0000 C.3     1  UNL1       -0.0453
     24 C           7.9998   -2.6452    0.0000 C.2     1  UNL1        0.3430
     25 C           6.1222   -3.7493    0.0000 C.3     1  UNL1       -0.0183
     26 C           7.1451    1.9002    0.0000 C.3     1  UNL1        0.0547
     27 C           3.1686   -1.9054    0.0000 C.2     1  UNL1        0.0363
     28 C           3.2698   -1.1639    0.0000 C.3     1  UNL1       -0.0545
     29 C           5.0758    1.9002    0.0000 C.3     1  UNL1        0.0821
     30 C           6.6313    2.8062    0.0000 C.2     1  UNL1       -0.0537
     31 C           2.9474   -2.8867    0.0000 C.2     1  UNL1        0.3355
     32 C           5.5897    2.8062    0.0000 C.2     1  UNL1       -0.0550
     33 C           7.9062    1.2515    0.0000 C.3     1  UNL1       -0.0485
     34 C           8.2298    1.8751    0.0000 C.2     1  UNL1        0.1659
     35 C           2.4502   -1.2098    0.0000 C.2     1  UNL1       -0.0882
     36 C           7.1665    3.7500    0.0000 C.3     1  UNL1       -0.0121
     37 C           8.7868    2.8062    0.0000 C.2     1  UNL1       -0.0220
     38 C           8.2515    3.7500    0.0000 C.2     1  UNL1       -0.0767
     39 H           4.3720   -1.1967    0.0000 H       1  UNL1        0.0419
     40 H           4.4683   -3.9749    0.0000 H       1  UNL1        0.0776
     41 H           3.3167   -2.2228    0.0000 H       1  UNL1        0.0311
     42 H           3.5410   -3.0078    0.0000 H       1  UNL1        0.0311
     43 H           4.7605    1.0062    0.0000 H       1  UNL1        0.0389
     44 H           7.4605    1.0062    0.0000 H       1  UNL1        0.0319
     45 H           7.9756   -1.0723    0.0000 H       1  UNL1        0.0299
     46 H           8.1042   -0.3431    0.0000 H       1  UNL1        0.0299
     47 H           7.9923    0.2915    0.0000 H       1  UNL1        0.0269
     48 H           7.6221    0.9327    0.0000 H       1  UNL1        0.0269
     49 H           5.5421   -3.9680    0.0000 H       1  UNL1        0.0270
     50 H           6.3410   -4.3294    0.0000 H       1  UNL1        0.0270
     51 H           6.7023   -3.5305    0.0000 H       1  UNL1        0.0270
     52 H           3.5726   -0.6229    0.0000 H       1  UNL1        0.0238
     53 H           2.7288   -0.8610    0.0000 H       1  UNL1        0.0238
     54 H           2.9669   -1.7049    0.0000 H       1  UNL1        0.0238
     55 H           4.7607    2.4341    0.0000 H       1  UNL1        0.0642
     56 H           8.4648   -1.5439    0.0000 H       1  UNL1        0.2110
     57 H           3.4415    0.5534    0.0000 H       1  UNL1        0.2132
     58 H           5.2776    3.3420    0.0000 H       1  UNL1        0.0598
     59 H           7.5040    0.7796    0.0000 H       1  UNL1        0.0242
     60 H           8.3781    0.8493    0.0000 H       1  UNL1        0.0242
     61 H           8.3084    1.7234    0.0000 H       1  UNL1        0.0242
     62 H           2.6009   -0.6084    0.0000 H       1  UNL1        0.0540
     63 H           1.8540   -1.3800    0.0000 H       1  UNL1        0.0540
     64 H           7.2726    4.3609    0.0000 H       1  UNL1        0.0353
     65 H           6.5828    3.9591    0.0000 H       1  UNL1        0.0353
     66 H           3.7597    2.4219    0.0000 H       1  UNL1        0.2102
     67 H           9.4067    2.7991    0.0000 H       1  UNL1        0.0649
     68 H           8.5636    4.2858    0.0000 H       1  UNL1        0.0576
@<TRIPOS>BOND
     1    11     1    1
     2     1    17    1
     3     2    13    1
     4     2    24    1
     5     3    16    1
     6     3    31    1
     7    14     4    1
     8     4    56    1
     9    17     5    1
    10     5    57    1
    11     6    20    2
    12     7    24    2
    13    29     8    1
    14     8    66    1
    15     9    31    2
    16    10    34    2
    17    11    12    1
    18    11    13    1
    19    11    14    1
    20    12    15    1
    21    12    20    1
    22    12    39    1
    23    13    16    1
    24    13    25    1
    25    14    22    1
    26    14    24    1
    27    15    18    1
    28    15    27    1
    29    15    28    1
    30    16    18    1
    31    16    40    1
    32    17    19    1
    33    17    20    1
    34    18    41    1
    35    18    42    1
    36    19    21    1
    37    19    29    1
    38    19    43    1
    39    21    23    1
    40    21    26    1
    41    21    44    1
    42    22    23    1
    43    22    45    1
    44    22    46    1
    45    23    47    1
    46    23    48    1
    47    25    49    1
    48    25    50    1
    49    25    51    1
    50    26    30    1
    51    26    33    1
    52    26    34    1
    53    27    31    1
    54    27    35    2
    55    28    52    1
    56    28    53    1
    57    28    54    1
    58    29    32    1
    59    29    55    1
    60    30    32    2
    61    30    36    1
    62    32    58    1
    63    33    59    1
    64    33    60    1
    65    33    61    1
    66    34    37    1
    67    35    62    1
    68    35    63    1
    69    36    38    1
    70    36    64    1
    71    36    65    1
    72    37    38    2
    73    37    67    1
    74    38    68    1
