@<TRIPOS>MOLECULE
IMPHY011275
 76 83 0 0 0
SMALL
GASTEIGER

@<TRIPOS>ATOM
      1 O          12.2705    0.4099    0.0000 O.3     1  UNL1       -0.2232
      2 O           7.7434   -4.1424    0.0000 O.3     1  UNL1       -0.3312
      3 O          14.7040    1.1157    0.0000 O.3     1  UNL1       -0.3334
      4 O           6.8832   -2.6391    0.0000 O.3     1  UNL1       -0.3257
      5 O          15.9932    2.2724    0.0000 O.3     1  UNL1       -0.3257
      6 O           6.0075   -5.1358    0.0000 O.3     1  UNL1       -0.3231
      7 O          16.0397   -0.3729    0.0000 O.3     1  UNL1       -0.2149
      8 O           4.2793   -4.1291    0.0000 O.3     1  UNL1       -0.2175
      9 O          17.9967    0.0395    0.0000 O.3     1  UNL1       -0.2174
     10 O           4.2870   -2.1291    0.0000 O.3     1  UNL1       -0.2176
     11 O          18.6181    1.9405    0.0000 O.3     1  UNL1       -0.2176
     12 O          16.6145    4.1734    0.0000 O.3     1  UNL1       -0.3259
     13 O           4.2755   -5.1291    0.0000 O.3     1  UNL1       -0.3256
     14 O           5.1588   -0.6325    0.0000 O.3     1  UNL1       -0.2176
     15 O           5.9998   -7.1357    0.0000 O.3     1  UNL1       -0.2149
     16 O           4.2639   -8.1291    0.0000 O.3     1  UNL1       -0.2174
     17 O          16.2574    5.8683    0.0000 O.3     1  UNL1       -0.3284
     18 O           2.5357   -7.1224    0.0000 O.3     1  UNL1       -0.2176
     19 O           2.5473   -4.1224    0.0000 O.3     1  UNL1       -0.2176
     20 O          18.5715    4.5859    0.0000 O.3     1  UNL1       -0.2149
     21 O          19.1929    6.4869    0.0000 O.3     1  UNL1       -0.2174
     22 O          17.8572    7.9755    0.0000 O.3     1  UNL1       -0.2177
     23 C          12.2705   -2.5901    0.0000 C.3     1  UNL1        0.0002
     24 C          13.1365   -2.0901    0.0000 C.3     1  UNL1        0.0024
     25 C          11.4044   -2.0901    0.0000 C.3     1  UNL1        0.0025
     26 C          10.4944   -2.5970    0.0000 C.3     1  UNL1        0.0002
     27 C          13.1365   -1.0901    0.0000 C.3     1  UNL1        0.0327
     28 C          10.4864   -3.6386    0.0000 C.3     1  UNL1        0.0023
     29 C          12.2865   -3.6316    0.0000 C.3     1  UNL1        0.0000
     30 C          14.0827   -0.7854    0.0000 C.3     1  UNL1        0.0275
     31 C          11.4044   -1.0901    0.0000 C.3     1  UNL1        0.0329
     32 C          12.2705   -0.5901    0.0000 C.3     1  UNL1        0.1520
     33 C          14.0827   -2.3948    0.0000 C.3     1  UNL1        0.0002
     34 C          11.3885   -4.1594    0.0000 C.3     1  UNL1        0.0001
     35 C           9.5510   -4.1883    0.0000 C.3     1  UNL1        0.0251
     36 C          14.6663   -1.5901    0.0000 C.3     1  UNL1        0.0024
     37 C           9.5676   -2.0329    0.0000 C.3     1  UNL1        0.0025
     38 C          12.9133   -3.3562    0.0000 C.3     1  UNL1        0.0000
     39 C          13.4786   -3.0298    0.0000 C.3     1  UNL1        0.0001
     40 C          10.5022   -1.5970    0.0000 C.3     1  UNL1        0.0000
     41 C           8.6114   -3.6458    0.0000 C.3     1  UNL1        0.1177
     42 C          14.3934    0.1651    0.0000 C.3     1  UNL1        0.0957
     43 C           8.6197   -2.5608    0.0000 C.3     1  UNL1        0.0296
     44 C          10.0543   -5.0524    0.0000 C.3     1  UNL1        0.0024
     45 C           9.0543   -5.0562    0.0000 C.3     1  UNL1        0.0024
     46 C          15.3439   -0.1455    0.0000 C.3     1  UNL1        0.0319
     47 C          13.4429    0.4758    0.0000 C.3     1  UNL1        0.0297
     48 C          15.5501   -1.1240    0.0000 C.3     1  UNL1        0.0278
     49 C           6.8793   -3.6391    0.0000 C.3     1  UNL1        0.2661
     50 C          15.6825    1.3219    0.0000 C.3     1  UNL1        0.2693
     51 C           6.0114   -4.1358    0.0000 C.3     1  UNL1        0.2066
     52 C          16.3504    0.5776    0.0000 C.3     1  UNL1        0.2406
     53 C          16.5006   -1.4347    0.0000 C.2     1  UNL1       -0.0345
     54 C           5.1473   -3.6324    0.0000 C.3     1  UNL1        0.2166
     55 C          17.3289    0.7838    0.0000 C.3     1  UNL1        0.2198
     56 C           6.0191   -2.1358    0.0000 C.3     1  UNL1        0.1835
     57 C          16.9717    2.4786    0.0000 C.3     1  UNL1        0.1802
     58 C           5.1511   -2.6324    0.0000 C.3     1  UNL1        0.2143
     59 C          17.6396    1.7343    0.0000 C.3     1  UNL1        0.2143
     60 C          16.7069   -2.4132    0.0000 C.2     1  UNL1       -0.0478
     61 C           6.0229   -1.1358    0.0000 C.3     1  UNL1        0.2142
     62 C          17.2824    3.4291    0.0000 C.3     1  UNL1        0.1770
     63 C           5.1396   -5.6324    0.0000 C.3     1  UNL1        0.2696
     64 C          15.9626   -3.0810    0.0000 C.3     1  UNL1        0.0260
     65 C          17.6574   -2.7239    0.0000 C.3     1  UNL1        0.0260
     66 C           5.1357   -6.6324    0.0000 C.3     1  UNL1        0.2406
     67 C           4.2678   -7.1291    0.0000 C.3     1  UNL1        0.2198
     68 C           3.4075   -5.6257    0.0000 C.3     1  UNL1        0.1835
     69 C           3.4037   -6.6257    0.0000 C.3     1  UNL1        0.2144
     70 C          16.9252    5.1240    0.0000 C.3     1  UNL1        0.2695
     71 C           2.5434   -5.1224    0.0000 C.3     1  UNL1        0.2142
     72 C          17.9037    5.3302    0.0000 C.3     1  UNL1        0.2406
     73 C          18.2144    6.2807    0.0000 C.3     1  UNL1        0.2197
     74 C          16.5680    6.8188    0.0000 C.3     1  UNL1        0.1508
     75 C          17.5465    7.0250    0.0000 C.3     1  UNL1        0.2118
     76 C          15.9002    7.5631    0.0000 C.3     1  UNL1        0.0350
@<TRIPOS>BOND
     1     1    32    1
     2     2    41    1
     3     3    42    1
     4     4    49    1
     5     4    56    1
     6     5    50    1
     7     5    57    1
     8    12    62    1
     9    13    63    1
    10    13    68    1
    11    14    61    1
    12    17    70    1
    13    17    74    1
    14    19    71    1
    15    23    24    1
    16    23    25    1
    17    23    29    1
    18    23    38    1
    19    24    27    1
    20    24    33    1
    21    24    39    1
    22    25    26    1
    23    25    31    1
    24    26    28    1
    25    26    37    1
    26    26    40    1
    27    27    30    1
    28    27    32    1
    29    28    34    1
    30    28    35    1
    31    29    34    1
    32    30    36    1
    33    30    42    1
    34    31    32    1
    35    33    36    1
    36    35    41    1
    37    35    44    1
    38    35    45    1
    39    37    43    1
    40    41    43    1
    41    42    46    1
    42    42    47    1
    43    46    48    1
    44    48    53    1
    45    49     2    1
    46    49    51    1
    47    50     3    1
    48    50    52    1
    49    51     6    1
    50    51    54    1
    51    52     7    1
    52    52    55    1
    53    53    60    2
    54    54     8    1
    55    54    58    1
    56    55     9    1
    57    55    59    1
    58    56    58    1
    59    56    61    1
    60    57    59    1
    61    57    62    1
    62    58    10    1
    63    59    11    1
    64    60    64    1
    65    60    65    1
    66    63     6    1
    67    63    66    1
    68    66    15    1
    69    66    67    1
    70    67    16    1
    71    67    69    1
    72    68    69    1
    73    68    71    1
    74    69    18    1
    75    70    12    1
    76    70    72    1
    77    72    20    1
    78    72    73    1
    79    73    21    1
    80    73    75    1
    81    74    75    1
    82    74    76    1
    83    75    22    1
