@<TRIPOS>MOLECULE
IMPHY010896
 38 39 0 0 0
SMALL
GASTEIGER

@<TRIPOS>ATOM
      1 O           6.3301    1.7500    0.0000 O.3     1  UNL1       -0.4940
      2 O           8.0901   -1.2847    0.0000 O.2     1  UNL1       -0.4219
      3 O           4.5981   -1.2500    0.0000 O.3     1  UNL1       -0.4946
      4 O           9.8602   -1.2741    0.0000 O.2     1  UNL1       -0.2452
      5 C           5.4641    0.2500    0.0000 C.ar    1  UNL1        0.0403
      6 C           6.3301    0.7500    0.0000 C.ar    1  UNL1        0.1377
      7 C           4.5981    0.7500    0.0000 C.3     1  UNL1       -0.0023
      8 C           7.1962    0.2500    0.0000 C.ar    1  UNL1        0.0597
      9 C           5.4641   -0.7500    0.0000 C.ar    1  UNL1        0.1306
     10 C           7.1962   -0.7500    0.0000 C.ar    1  UNL1        0.1460
     11 C           6.3301   -1.2500    0.0000 C.ar    1  UNL1        0.0236
     12 C           3.7320    0.2500    0.0000 C.2     1  UNL1       -0.0807
     13 C           8.0901    0.7847    0.0000 C.ar    1  UNL1       -0.0408
     14 C           2.8660    0.7500    0.0000 C.2     1  UNL1       -0.0793
     15 C           8.9962    0.2708    0.0000 C.ar    1  UNL1        0.0237
     16 C           8.9962   -0.7708    0.0000 C.ar    1  UNL1        0.3372
     17 C           2.0000    0.2500    0.0000 C.3     1  UNL1       -0.0440
     18 C           2.8660    1.7500    0.0000 C.3     1  UNL1       -0.0440
     19 C           5.4641    2.2500    0.0000 C.3     1  UNL1        0.0788
     20 C           4.5981   -2.2500    0.0000 C.3     1  UNL1        0.0788
     21 H           4.9966    1.2250    0.0000 H       1  UNL1        0.0358
     22 H           4.1996    1.2250    0.0000 H       1  UNL1        0.0358
     23 H           6.3301   -1.8700    0.0000 H       1  UNL1        0.0691
     24 H           3.7320   -0.3700    0.0000 H       1  UNL1        0.0575
     25 H           8.0829    1.4046    0.0000 H       1  UNL1        0.0628
     26 H           9.5319    0.5829    0.0000 H       1  UNL1        0.0689
     27 H           1.6900    0.7869    0.0000 H       1  UNL1        0.0274
     28 H           1.4631   -0.0600    0.0000 H       1  UNL1        0.0274
     29 H           2.3100   -0.2869    0.0000 H       1  UNL1        0.0274
     30 H           3.4860    1.7500    0.0000 H       1  UNL1        0.0274
     31 H           2.8660    2.3700    0.0000 H       1  UNL1        0.0274
     32 H           2.2460    1.7500    0.0000 H       1  UNL1        0.0274
     33 H           5.7741    2.7869    0.0000 H       1  UNL1        0.0660
     34 H           4.9272    2.5600    0.0000 H       1  UNL1        0.0660
     35 H           5.1541    1.7131    0.0000 H       1  UNL1        0.0660
     36 H           3.9781   -2.2500    0.0000 H       1  UNL1        0.0660
     37 H           4.5981   -2.8700    0.0000 H       1  UNL1        0.0660
     38 H           5.2181   -2.2500    0.0000 H       1  UNL1        0.0660
@<TRIPOS>BOND
     1     1     6    1
     2     1    19    1
     3     2    10   ar
     4     2    16   ar
     5     3     9    1
     6     3    20    1
     7     4    16    2
     8     5     6   ar
     9     5     7    1
    10     5     9   ar
    11     6     8   ar
    12     7    12    1
    13     7    21    1
    14     7    22    1
    15     8    10   ar
    16     8    13   ar
    17     9    11   ar
    18    10    11   ar
    19    11    23    1
    20    12    14    2
    21    12    24    1
    22    13    15   ar
    23    13    25    1
    24    14    17    1
    25    14    18    1
    26    15    16   ar
    27    15    26    1
    28    17    27    1
    29    17    28    1
    30    17    29    1
    31    18    30    1
    32    18    31    1
    33    18    32    1
    34    19    33    1
    35    19    34    1
    36    19    35    1
    37    20    36    1
    38    20    37    1
    39    20    38    1
