@<TRIPOS>MOLECULE
IMPHY002227
 59 62 0 0 0
SMALL
GASTEIGER

@<TRIPOS>ATOM
      1 O           9.0501    1.5209    0.0000 O.3     1  UNL1       -0.4910
      2 O           5.5103    1.5072    0.0000 O.3     1  UNL1       -0.4907
      3 O           7.2762    2.5450    0.0000 O.3     1  UNL1       -0.4885
      4 O           2.8680   -2.0484    0.0000 O.3     1  UNL1       -0.4914
      5 O           2.8680   -0.0001    0.0000 O.3     1  UNL1       -0.4914
      6 N           8.1223   -2.0212    0.0000 N.4     1  UNL1        0.2449
      7 C           7.2641   -1.5242    0.0000 C.3     1  UNL1        0.0114
      8 C           8.9878   -1.5370    0.0000 C.3     1  UNL1       -0.0258
      9 C           7.2641   -0.5242    0.0000 C.ar    1  UNL1        0.0188
     10 C           6.3981   -2.0242    0.0000 C.3     1  UNL1        0.0207
     11 C           9.0134   -0.5456    0.0000 C.3     1  UNL1        0.0168
     12 C           8.1741   -0.0174    0.0000 C.ar    1  UNL1        0.0122
     13 C           8.6159   -2.8908    0.0000 C.3     1  UNL1       -0.0409
     14 C           7.6159   -2.8834    0.0000 C.3     1  UNL1       -0.0409
     15 C           6.3981   -0.0242    0.0000 C.ar    1  UNL1        0.0368
     16 C           5.5320   -1.5242    0.0000 C.ar    1  UNL1       -0.0302
     17 C           5.5320   -0.5242    0.0000 C.ar    1  UNL1       -0.0067
     18 C           8.1821    1.0242    0.0000 C.ar    1  UNL1        0.1690
     19 C           6.3820    1.0173    0.0000 C.ar    1  UNL1        0.1733
     20 C           7.2800    1.5450    0.0000 C.ar    1  UNL1        0.2044
     21 C           4.6381   -2.0589    0.0000 C.ar    1  UNL1       -0.0123
     22 C           4.6381    0.0104    0.0000 C.ar    1  UNL1       -0.0082
     23 C           3.7320   -1.5450    0.0000 C.ar    1  UNL1        0.1618
     24 C           3.7320   -0.5034    0.0000 C.ar    1  UNL1        0.1621
     25 C           9.0539    2.5209    0.0000 C.3     1  UNL1        0.0790
     26 C           5.4987    2.5072    0.0000 C.3     1  UNL1        0.0790
     27 C           8.1403    3.0484    0.0000 C.3     1  UNL1        0.0791
     28 C           2.8718   -3.0484    0.0000 C.3     1  UNL1        0.0790
     29 C           2.0000   -0.4967    0.0000 C.3     1  UNL1        0.0790
     30 H           7.2636   -2.3742    0.0000 H       1  UNL1        0.0908
     31 H           9.1895   -2.1232    0.0000 H       1  UNL1        0.0818
     32 H           9.6006   -1.4426    0.0000 H       1  UNL1        0.0818
     33 H           5.9995   -2.4992    0.0000 H       1  UNL1        0.0372
     34 H           6.7966   -2.4992    0.0000 H       1  UNL1        0.0372
     35 H           9.6205   -0.6715    0.0000 H       1  UNL1        0.0366
     36 H           9.2452    0.0295    0.0000 H       1  UNL1        0.0366
     37 H           7.0813   -2.5695    0.0000 H       1  UNL1        0.0778
     38 H           8.0767   -3.1969    0.0000 H       1  UNL1        0.0778
     39 H           8.9219   -3.4301    0.0000 H       1  UNL1        0.0778
     40 H           9.1551   -2.5848    0.0000 H       1  UNL1        0.0778
     41 H           7.3020   -3.4181    0.0000 H       1  UNL1        0.0778
     42 H           8.1506   -3.1974    0.0000 H       1  UNL1        0.0778
     43 H           4.6453   -2.6788    0.0000 H       1  UNL1        0.0658
     44 H           4.6453    0.6304    0.0000 H       1  UNL1        0.0661
     45 H           9.6739    2.5185    0.0000 H       1  UNL1        0.0660
     46 H           9.0563    3.1409    0.0000 H       1  UNL1        0.0660
     47 H           8.4339    2.5233    0.0000 H       1  UNL1        0.0660
     48 H           6.1187    2.5143    0.0000 H       1  UNL1        0.0660
     49 H           5.4915    3.1271    0.0000 H       1  UNL1        0.0660
     50 H           4.8787    2.5000    0.0000 H       1  UNL1        0.0660
     51 H           8.4523    2.5126    0.0000 H       1  UNL1        0.0660
     52 H           8.6760    3.3604    0.0000 H       1  UNL1        0.0660
     53 H           7.8282    3.5841    0.0000 H       1  UNL1        0.0660
     54 H           2.2518   -3.0508    0.0000 H       1  UNL1        0.0660
     55 H           2.8742   -3.6684    0.0000 H       1  UNL1        0.0660
     56 H           3.4918   -3.0460    0.0000 H       1  UNL1        0.0660
     57 H           1.6921    0.0414    0.0000 H       1  UNL1        0.0660
     58 H           1.4619   -0.8047    0.0000 H       1  UNL1        0.0660
     59 H           2.3079   -1.0349    0.0000 H       1  UNL1        0.0660
@<TRIPOS>UNITY_ATOM_ATTR
6 1
charge 1
@<TRIPOS>BOND
     1     1    18    1
     2     1    25    1
     3     2    19    1
     4     2    26    1
     5     3    20    1
     6     3    27    1
     7     4    23    1
     8     4    28    1
     9     5    24    1
    10     5    29    1
    11     6     7    1
    12     6     8    1
    13     6    13    1
    14     6    14    1
    15     7     9    1
    16     7    10    1
    17     7    30    1
    18     8    11    1
    19     8    31    1
    20     8    32    1
    21     9    12   ar
    22     9    15   ar
    23    10    16    1
    24    10    33    1
    25    10    34    1
    26    11    12    1
    27    11    35    1
    28    11    36    1
    29    12    18   ar
    30    13    38    1
    31    13    39    1
    32    13    40    1
    33    14    37    1
    34    14    41    1
    35    14    42    1
    36    15    17    1
    37    15    19   ar
    38    16    17   ar
    39    16    21   ar
    40    17    22   ar
    41    18    20   ar
    42    19    20   ar
    43    21    23   ar
    44    21    43    1
    45    22    24   ar
    46    22    44    1
    47    23    24   ar
    48    25    45    1
    49    25    46    1
    50    25    47    1
    51    26    48    1
    52    26    49    1
    53    26    50    1
    54    27    51    1
    55    27    52    1
    56    27    53    1
    57    28    54    1
    58    28    55    1
    59    28    56    1
    60    29    57    1
    61    29    58    1
    62    29    59    1
