@<TRIPOS>MOLECULE
IMPHY012056
 34 35 0 0 0
SMALL
GASTEIGER

@<TRIPOS>ATOM
      1 O           3.5698   -1.7240    0.0000 O.3     1  UNL1       -0.4610
      2 O           2.0000   -0.9920    0.0000 O.2     1  UNL1       -0.2512
      3 C           5.3651   -0.2256    0.0000 C.3     1  UNL1        0.0104
      4 C           4.8873    1.7229    0.0000 C.3     1  UNL1       -0.0232
      5 C           5.6239    0.7403    0.0000 C.3     1  UNL1       -0.0319
      6 C           3.9924   -0.8177    0.0000 C.3     1  UNL1        0.1092
      7 C           6.7640   -0.7345    0.0000 C.3     1  UNL1       -0.0435
      8 C           3.6504    0.1220    0.0000 C.3     1  UNL1       -0.0118
      9 C           7.0228    0.2315    0.0000 C.3     1  UNL1       -0.0490
     10 C           5.1063   -1.1916    0.0000 C.3     1  UNL1       -0.0557
     11 C           4.9918    2.7174    0.0000 C.3     1  UNL1       -0.0589
     12 C           3.9738    2.1296    0.0000 C.3     1  UNL1       -0.0589
     13 C           2.5736   -1.8111    0.0000 C.2     1  UNL1        0.3042
     14 C           2.1510   -2.7174    0.0000 C.3     1  UNL1        0.0332
     15 H           5.8439    1.5613    0.0000 H       1  UNL1        0.0307
     16 H           4.4244   -1.2624    0.0000 H       1  UNL1        0.0739
     17 H           6.5691   -1.3230    0.0000 H       1  UNL1        0.0272
     18 H           7.3580   -0.9122    0.0000 H       1  UNL1        0.0272
     19 H           3.4561    0.7108    0.0000 H       1  UNL1        0.0304
     20 H           3.0646   -0.0812    0.0000 H       1  UNL1        0.0304
     21 H           7.6168    0.0537    0.0000 H       1  UNL1        0.0268
     22 H           7.2178    0.8200    0.0000 H       1  UNL1        0.0268
     23 H           4.5074   -1.0311    0.0000 H       1  UNL1        0.0236
     24 H           4.9458   -1.7904    0.0000 H       1  UNL1        0.0236
     25 H           5.7052   -1.3520    0.0000 H       1  UNL1        0.0236
     26 H           5.6084    2.6526    0.0000 H       1  UNL1        0.0235
     27 H           5.0566    3.3340    0.0000 H       1  UNL1        0.0235
     28 H           4.3752    2.7822    0.0000 H       1  UNL1        0.0235
     29 H           4.2259    2.6960    0.0000 H       1  UNL1        0.0235
     30 H           3.4074    2.3818    0.0000 H       1  UNL1        0.0235
     31 H           3.7216    1.5632    0.0000 H       1  UNL1        0.0235
     32 H           1.5890   -2.4554    0.0000 H       1  UNL1        0.0342
     33 H           1.8889   -3.2793    0.0000 H       1  UNL1        0.0342
     34 H           2.7129   -2.9794    0.0000 H       1  UNL1        0.0342
@<TRIPOS>BOND
     1     6     1    1
     2     1    13    1
     3     2    13    2
     4     3     4    1
     5     3     6    1
     6     3     7    1
     7     3    10    1
     8     4     5    1
     9     4    11    1
    10     4    12    1
    11     5     8    1
    12     5     9    1
    13     5    15    1
    14     6     8    1
    15     6    16    1
    16     7     9    1
    17     7    17    1
    18     7    18    1
    19     8    19    1
    20     8    20    1
    21     9    21    1
    22     9    22    1
    23    10    23    1
    24    10    24    1
    25    10    25    1
    26    11    26    1
    27    11    27    1
    28    11    28    1
    29    12    29    1
    30    12    30    1
    31    12    31    1
    32    13    14    1
    33    14    32    1
    34    14    33    1
    35    14    34    1
