@<TRIPOS>MOLECULE
IMPHY008886
 41 47 0 0 0
SMALL
GASTEIGER
****
Created with ChemWriter - http://chemwriter.com
@<TRIPOS>ATOM
      1 C           3.6075   -1.1078    0.0000 C.3     1  UNL1        0.0187
      2 C           3.5985    0.6542    0.0000 C.3     1  UNL1        0.0012
      3 C           4.3384   -3.4809    0.0000 C.3     1  UNL1        0.1734
      4 C           4.2554   -3.0149    0.0000 C.3     1  UNL1        0.1735
      5 C           0.0301   -4.3995    0.0000 C.3     1  UNL1        0.1734
      6 C           3.6159   -0.4565    0.0000 C.3     1  UNL1        0.0719
      7 C           4.1596   -0.8987    0.0000 C.3     1  UNL1        0.0233
      8 C           3.6786   -0.0403    0.0000 C.3     1  UNL1        0.0032
      9 C           2.1064   -3.0858    0.0000 C.3     1  UNL1       -0.0040
     10 C           1.5593   -1.6643    0.0000 C.3     1  UNL1        0.0525
     11 C           2.3665    0.8475    0.0000 C.3     1  UNL1        0.0715
     12 C          -0.6478   -0.6108    0.0000 C.3     1  UNL1        0.2939
     13 C           1.3016   -3.4665    0.0000 C.3     1  UNL1        0.0196
     14 C           1.9930   -2.2027    0.0000 C.3     1  UNL1       -0.0160
     15 C           1.8644   -2.6275    0.0000 C.3     1  UNL1        0.0753
     16 C           3.5542   -1.7635    0.0000 C.3     1  UNL1        0.0750
     17 C           1.1181   -2.0376    0.0000 C.3     1  UNL1        0.0224
     18 C           0.6907   -2.8188    0.0000 C.3     1  UNL1        0.0714
     19 C           1.9747   -0.9329    0.0000 C.3     1  UNL1        0.0096
     20 C           0.7888   -0.9329    0.0000 C.3     1  UNL1        0.1309
     21 C           1.9968   -0.3951    0.0000 C.3     1  UNL1        0.0548
     22 C           2.8080    0.0595    0.0000 C.3     1  UNL1        0.0135
     23 C           0.6161   -1.3023    0.0000 C.3     1  UNL1        0.1208
     24 C           2.7284   -1.7007    0.0000 C.3     1  UNL1        0.0257
     25 C           0.7811   -0.4273    0.0000 C.3     1  UNL1        0.1481
     26 N           2.4963    0.2093    0.0000 N.3     1  UNL1       -0.2761
     27 O           0.1966   -1.7252    0.0000 O.3     1  UNL1       -0.2277
     28 O           2.7824   -2.2592    0.0000 O.3     1  UNL1       -0.3598
     29 O           4.2660   -2.1868    0.0000 O.3     1  UNL1       -0.3597
     30 O          -0.0959   -3.4184    0.0000 O.3     1  UNL1       -0.3601
     31 O          -0.2670   -1.4157    0.0000 O.3     1  UNL1       -0.3293
     32 O           0.0000    0.0000    0.0000 O.3     1  UNL1       -0.3262
     33 H           0.9301   -4.3833    0.0000 H       1  UNL1        0.0357
     34 H           2.1118   -1.2207    0.0000 H       1  UNL1        0.0318
     35 H           2.6424   -3.2384    0.0000 H       1  UNL1        0.0607
     36 H           3.7828   -2.7258    0.0000 H       1  UNL1        0.0608
     37 H           1.3651   -1.0798    0.0000 H       1  UNL1        0.0358
     38 H          -0.2219   -2.4373    0.0000 H       1  UNL1        0.0604
     39 H           1.1118   -1.4165    0.0000 H       1  UNL1        0.0341
     40 H          -0.1934   -0.8162    0.0000 H       1  UNL1        0.0662
     41 H           1.9554    1.5828    0.0000 H       1  UNL1        0.0500
@<TRIPOS>BOND
     1     1     6    1
     2     2    22    1
     3     3    28    1
     4     4    29    1
     5     5    30    1
     6     6    26    1
     7     7     8    1
     8     7    16    1
     9     8    22    1
    10     9    13    1
    11     9    14    1
    12    10    15    1
    13    10    23    1
    14    11    22    1
    15    11    26    1
    16    12    31    1
    17    12    32    1
    18    13    33    1
    19    13    15    1
    20    13    18    1
    21    14    34    1
    22    14    17    1
    23    14    24    1
    24    15    35    1
    25    15    28    1
    26    16    36    1
    27    16    24    1
    28    16    29    1
    29    17    37    1
    30    17    18    1
    31    17    23    1
    32    18    38    1
    33    18    30    1
    34    19    39    1
    35    19    20    1
    36    19    22    1
    37    19    24    1
    38    20    40    1
    39    20    25    1
    40    20    27    1
    41    21    41    1
    42    21    24    1
    43    21    25    1
    44    21    26    1
    45    23    25    1
    46    23    31    1
    47    25    32    1
