@<TRIPOS>MOLECULE
IMPHY014279
 22 23 0 0 0
SMALL
GASTEIGER

@<TRIPOS>ATOM
      1 O           2.9176   -2.4192    0.0000 O.3     1  UNL1       -0.5047
      2 O           6.3981   -1.3846    0.0000 O.2     1  UNL1       -0.2679
      3 O           5.5321    2.1154    0.0000 O.3     1  UNL1       -0.4771
      4 O           3.8000    2.1154    0.0000 O.2     1  UNL1       -0.2451
      5 N           4.6660   -1.3846    0.0000 N.ar    1  UNL1       -0.3192
      6 C           3.8000    0.1154    0.0000 C.ar    1  UNL1        0.0161
      7 C           3.8000   -0.8846    0.0000 C.ar    1  UNL1        0.0919
      8 C           4.6660    0.6154    0.0000 C.ar    1  UNL1        0.0731
      9 C           2.9061   -1.4193    0.0000 C.ar    1  UNL1        0.1407
     10 C           2.9061    0.6501    0.0000 C.ar    1  UNL1       -0.0516
     11 C           5.5321    0.1154    0.0000 C.ar    1  UNL1        0.0173
     12 C           5.5321   -0.8846    0.0000 C.ar    1  UNL1        0.2500
     13 C           2.0000   -0.9054    0.0000 C.ar    1  UNL1       -0.0181
     14 C           2.0000    0.1362    0.0000 C.ar    1  UNL1       -0.0576
     15 C           4.6660    1.6154    0.0000 C.2     1  UNL1        0.3376
     16 H           4.6660   -2.0046    0.0000 H       1  UNL1        0.1690
     17 H           2.9132    1.2700    0.0000 H       1  UNL1        0.0624
     18 H           6.0690    0.4254    0.0000 H       1  UNL1        0.0680
     19 H           1.4643   -1.2175    0.0000 H       1  UNL1        0.0655
     20 H           1.4643    0.4483    0.0000 H       1  UNL1        0.0619
     21 H           2.3843   -2.7354    0.0000 H       1  UNL1        0.2922
     22 H           5.5321    2.7354    0.0000 H       1  UNL1        0.2954
@<TRIPOS>BOND
     1     1     9    1
     2     1    21    1
     3     2    12    2
     4     3    15    1
     5     3    22    1
     6     4    15    2
     7     5     7   ar
     8     5    12   ar
     9     5    16    1
    10     6     7   ar
    11     6     8   ar
    12     6    10   ar
    13     7     9   ar
    14     8    11   ar
    15     8    15    1
    16     9    13   ar
    17    10    14   ar
    18    10    17    1
    19    11    12   ar
    20    11    18    1
    21    13    14   ar
    22    13    19    1
    23    14    20    1
