@<TRIPOS>MOLECULE
IMPHY002112
 104 112 0 0 0
SMALL
GASTEIGER

@<TRIPOS>ATOM
      1 O          10.9730    0.4736    0.0000 O.3     1  UNL1       -0.4672
      2 O           9.2412    1.2037    0.0000 O.2     1  UNL1       -0.2497
      3 O           5.3912    0.6103    0.0000 O.3     1  UNL1       -0.4948
      4 O           2.7248   -3.0138    0.0000 O.3     1  UNL1       -0.4677
      5 O           3.4007   -4.2562    0.0000 O.2     1  UNL1       -0.2505
      6 N          10.0615    3.8855    0.0000 N.3     1  UNL1       -0.2971
      7 N           9.4255    0.7101    0.0000 N.ar    1  UNL1       -0.3568
      8 N           4.0133   -3.6040    0.0000 N.3     1  UNL1       -0.2974
      9 N           7.9311   -1.8417    0.0000 N.ar    1  UNL1       -0.3572
     10 C          10.6850    3.1036    0.0000 C.3     1  UNL1        0.0344
     11 C          10.4624    2.1287    0.0000 C.3     1  UNL1        0.1235
     12 C          12.2127    1.7079    0.0000 C.3     1  UNL1       -0.0265
     13 C          11.6755    3.4260    0.0000 C.3     1  UNL1       -0.0240
     14 C          11.2150    1.4085    0.0000 C.3     1  UNL1       -0.0262
     15 C          12.4445    2.7234    0.0000 C.3     1  UNL1       -0.0447
     16 C          11.7657    3.4177    0.0000 C.3     1  UNL1        0.0021
     17 C           9.5615    1.6948    0.0000 C.ar    1  UNL1        0.0388
     18 C           9.0615    3.8855    0.0000 C.3     1  UNL1        0.0033
     19 C          11.8867    4.4034    0.0000 C.3     1  UNL1       -0.0516
     20 C           8.6605    2.1287    0.0000 C.ar    1  UNL1       -0.0167
     21 C          10.2399    1.1538    0.0000 C.2     1  UNL1        0.3205
     22 C           8.4380    3.1036    0.0000 C.3     1  UNL1       -0.0126
     23 C           7.9754    1.4084    0.0000 C.ar    1  UNL1        0.0066
     24 C           8.4472    0.5334    0.0000 C.ar    1  UNL1        0.0475
     25 C          12.8388    4.7092    0.0000 C.3     1  UNL1       -0.0650
     26 C           6.9410    1.4544    0.0000 C.ar    1  UNL1       -0.0102
     27 C           7.9173   -0.3561    0.0000 C.ar    1  UNL1       -0.0305
     28 C           6.8821   -0.3340    0.0000 C.ar    1  UNL1        0.0051
     29 C           6.3604   -1.1872    0.0000 C.3     1  UNL1        0.0287
     30 C           4.5641   -1.6203    0.0000 C.3     1  UNL1       -0.0034
     31 C           6.3906    0.5774    0.0000 C.ar    1  UNL1        0.1246
     32 C           5.3726   -1.0317    0.0000 C.3     1  UNL1       -0.0333
     33 C           4.4087   -2.6082    0.0000 C.3     1  UNL1        0.0787
     34 C           4.9972   -3.4166    0.0000 C.3     1  UNL1        0.0279
     35 C          10.7505   -0.5013    0.0000 C.3     1  UNL1        0.0817
     36 C           6.9490   -1.9956    0.0000 C.ar    1  UNL1        0.0278
     37 C           5.9851   -3.5721    0.0000 C.3     1  UNL1       -0.0089
     38 C           3.6030   -1.9020    0.0000 C.2     1  UNL1       -0.0558
     39 C           6.7935   -2.9835    0.0000 C.ar    1  UNL1       -0.0170
     40 C           3.3350   -2.8670    0.0000 C.3     1  UNL1        0.0203
     41 C           7.6809   -3.4316    0.0000 C.ar    1  UNL1        0.0032
     42 C           3.6839   -3.2971    0.0000 C.2     1  UNL1        0.3120
     43 C           8.3825   -2.7274    0.0000 C.ar    1  UNL1        0.0469
     44 C           4.2163   -4.5831    0.0000 C.3     1  UNL1       -0.0121
     45 C           2.8908   -1.1999    0.0000 C.2     1  UNL1       -0.0864
     46 C           7.9353   -4.4353    0.0000 C.ar    1  UNL1       -0.0523
     47 C           4.9199    1.4923    0.0000 C.3     1  UNL1        0.0788
     48 C           9.3872   -2.9781    0.0000 C.ar    1  UNL1       -0.0378
     49 C           3.1428   -0.2321    0.0000 C.3     1  UNL1       -0.0465
     50 C           8.9339   -4.7092    0.0000 C.ar    1  UNL1       -0.0611
     51 C           9.6647   -3.9757    0.0000 C.ar    1  UNL1       -0.0598
     52 C           2.0000   -3.7028    0.0000 C.3     1  UNL1        0.0817
     53 H          10.8741    3.9323    0.0000 H       1  UNL1        0.0480
     54 H          12.4277    0.8855    0.0000 H       1  UNL1        0.0314
     55 H          12.2661    3.6144    0.0000 H       1  UNL1        0.0316
     56 H          10.7160    1.0406    0.0000 H       1  UNL1        0.0283
     57 H          11.4922    0.8539    0.0000 H       1  UNL1        0.0283
     58 H          13.0164    2.4840    0.0000 H       1  UNL1        0.0271
     59 H          12.7782    3.2459    0.0000 H       1  UNL1        0.0271
     60 H          12.3837    3.4680    0.0000 H       1  UNL1        0.0429
     61 H          11.8235    4.0350    0.0000 H       1  UNL1        0.0429
     62 H           9.1994    4.4899    0.0000 H       1  UNL1        0.0430
     63 H           8.5029    4.1545    0.0000 H       1  UNL1        0.0430
     64 H          11.8025    5.0177    0.0000 H       1  UNL1        0.0266
     65 H          11.2672    4.4272    0.0000 H       1  UNL1        0.0266
     66 H           8.0514    3.5884    0.0000 H       1  UNL1        0.0326
     67 H           7.8794    2.8346    0.0000 H       1  UNL1        0.0326
     68 H           9.8729    0.2809    0.0000 H       1  UNL1        0.1656
     69 H          13.0284    4.1189    0.0000 H       1  UNL1        0.0230
     70 H          13.4291    4.8988    0.0000 H       1  UNL1        0.0230
     71 H          12.6492    5.2995    0.0000 H       1  UNL1        0.0230
     72 H           6.6530    2.0035    0.0000 H       1  UNL1        0.0661
     73 H           8.2179   -0.8984    0.0000 H       1  UNL1        0.0642
     74 H           6.0038   -0.4156    0.0000 H       1  UNL1        0.0413
     75 H           4.1890   -0.8576    0.0000 H       1  UNL1        0.0355
     76 H           5.6242   -0.4651    0.0000 H       1  UNL1        0.0281
     77 H           4.8904   -0.6420    0.0000 H       1  UNL1        0.0281
     78 H           3.6561   -2.2131    0.0000 H       1  UNL1        0.0435
     79 H           5.4975   -4.1038    0.0000 H       1  UNL1        0.0474
     80 H          10.1460   -0.3634    0.0000 H       1  UNL1        0.0661
     81 H          10.6125   -1.1058    0.0000 H       1  UNL1        0.0661
     82 H          11.3549   -0.6393    0.0000 H       1  UNL1        0.0661
     83 H           5.7335   -4.1387    0.0000 H       1  UNL1        0.0329
     84 H           6.4673   -3.9618    0.0000 H       1  UNL1        0.0329
     85 H           2.7784   -2.5939    0.0000 H       1  UNL1        0.0473
     86 H           2.9640   -3.3638    0.0000 H       1  UNL1        0.0473
     87 H           8.2130   -1.2895    0.0000 H       1  UNL1        0.1656
     88 H           3.6092   -4.7090    0.0000 H       1  UNL1        0.0391
     89 H           4.3421   -5.1902    0.0000 H       1  UNL1        0.0391
     90 H           4.8234   -4.4573    0.0000 H       1  UNL1        0.0391
     91 H           2.2931   -1.3646    0.0000 H       1  UNL1        0.0569
     92 H           7.4926   -4.8695    0.0000 H       1  UNL1        0.0624
     93 H           5.4668    1.7844    0.0000 H       1  UNL1        0.0660
     94 H           4.6278    2.0391    0.0000 H       1  UNL1        0.0660
     95 H           4.3731    1.2001    0.0000 H       1  UNL1        0.0660
     96 H           9.8196   -2.5338    0.0000 H       1  UNL1        0.0638
     97 H           3.7428   -0.3884    0.0000 H       1  UNL1        0.0272
     98 H           3.2990    0.3679    0.0000 H       1  UNL1        0.0272
     99 H           2.5428   -0.0759    0.0000 H       1  UNL1        0.0272
    100 H           9.0931   -5.3084    0.0000 H       1  UNL1        0.0618
    101 H          10.2645   -4.1327    0.0000 H       1  UNL1        0.0618
    102 H           1.5728   -3.2534    0.0000 H       1  UNL1        0.0661
    103 H           1.5506   -4.1300    0.0000 H       1  UNL1        0.0661
    104 H           2.4272   -4.1522    0.0000 H       1  UNL1        0.0661
@<TRIPOS>BOND
     1     1    21    1
     2     1    35    1
     3     2    21    2
     4     3    31    1
     5     3    47    1
     6     4    42    1
     7     4    52    1
     8     5    42    2
     9     6    10    1
    10     6    16    1
    11     6    18    1
    12     7    17   ar
    13     7    24   ar
    14     7    68    1
    15     8    34    1
    16     8    40    1
    17     8    44    1
    18     9    36   ar
    19     9    43   ar
    20     9    87    1
    21    10    11    1
    22    10    13    1
    23    10    53    1
    24    11    14    1
    25    11    17    1
    26    11    21    1
    27    12    14    1
    28    12    15    1
    29    12    16    1
    30    12    54    1
    31    13    15    1
    32    13    19    1
    33    13    55    1
    34    14    56    1
    35    14    57    1
    36    15    58    1
    37    15    59    1
    38    16    60    1
    39    16    61    1
    40    17    20   ar
    41    18    22    1
    42    18    62    1
    43    18    63    1
    44    19    25    1
    45    19    64    1
    46    19    65    1
    47    20    22    1
    48    20    23   ar
    49    22    66    1
    50    22    67    1
    51    23    24   ar
    52    23    26   ar
    53    24    27   ar
    54    25    69    1
    55    25    70    1
    56    25    71    1
    57    26    31   ar
    58    26    72    1
    59    27    28   ar
    60    27    73    1
    61    28    29    1
    62    28    31   ar
    63    29    32    1
    64    29    36    1
    65    29    74    1
    66    30    32    1
    67    30    33    1
    68    30    38    1
    69    30    75    1
    70    32    76    1
    71    32    77    1
    72    33    34    1
    73    33    42    1
    74    33    78    1
    75    34    37    1
    76    34    79    1
    77    35    80    1
    78    35    81    1
    79    35    82    1
    80    36    39   ar
    81    37    39    1
    82    37    83    1
    83    37    84    1
    84    38    40    1
    85    38    45    2
    86    39    41   ar
    87    40    85    1
    88    40    86    1
    89    41    43   ar
    90    41    46   ar
    91    43    48   ar
    92    44    88    1
    93    44    89    1
    94    44    90    1
    95    45    49    1
    96    45    91    1
    97    46    50   ar
    98    46    92    1
    99    47    93    1
   100    47    94    1
   101    47    95    1
   102    48    51   ar
   103    48    96    1
   104    49    97    1
   105    49    98    1
   106    49    99    1
   107    50    51   ar
   108    50   100    1
   109    51   101    1
   110    52   102    1
   111    52   103    1
   112    52   104    1
