@<TRIPOS>MOLECULE
IMPHY015248
 27 28 0 0 0
SMALL
GASTEIGER

@<TRIPOS>ATOM
      1 O           2.0000    0.6900    0.0000 O.3     1  UNL1       -0.3875
      2 C           5.4646   -0.3100    0.0000 C.3     1  UNL1       -0.0249
      3 C           4.5981    0.1900    0.0000 C.3     1  UNL1       -0.0259
      4 C           4.5981   -0.8100    0.0000 C.3     1  UNL1       -0.0137
      5 C           3.7320    0.6900    0.0000 C.3     1  UNL1       -0.0191
      6 C           3.7320   -1.3100    0.0000 C.2     1  UNL1       -0.0787
      7 C           5.9646   -1.1760    0.0000 C.3     1  UNL1       -0.0590
      8 C           5.9646    0.5560    0.0000 C.3     1  UNL1       -0.0590
      9 C           2.8660    0.1900    0.0000 C.3     1  UNL1        0.0763
     10 C           2.8660   -0.8100    0.0000 C.2     1  UNL1       -0.0482
     11 C           2.0000   -1.3100    0.0000 C.3     1  UNL1       -0.0414
     12 H           4.9080    0.7270    0.0000 H       1  UNL1        0.0313
     13 H           4.9080   -1.3470    0.0000 H       1  UNL1        0.0351
     14 H           4.1306    1.1650    0.0000 H       1  UNL1        0.0296
     15 H           3.3335    1.1650    0.0000 H       1  UNL1        0.0296
     16 H           3.7320   -1.9300    0.0000 H       1  UNL1        0.0575
     17 H           5.4277   -1.4860    0.0000 H       1  UNL1        0.0235
     18 H           6.2746   -1.7130    0.0000 H       1  UNL1        0.0235
     19 H           6.5016   -0.8660    0.0000 H       1  UNL1        0.0235
     20 H           6.5016    0.2460    0.0000 H       1  UNL1        0.0235
     21 H           6.2746    1.0930    0.0000 H       1  UNL1        0.0235
     22 H           5.4277    0.8660    0.0000 H       1  UNL1        0.0235
     23 H           2.8660    0.8100    0.0000 H       1  UNL1        0.0640
     24 H           1.6900   -0.7731    0.0000 H       1  UNL1        0.0275
     25 H           1.4631   -1.6200    0.0000 H       1  UNL1        0.0275
     26 H           2.3100   -1.8469    0.0000 H       1  UNL1        0.0275
     27 H           2.0000    1.3100    0.0000 H       1  UNL1        0.2102
@<TRIPOS>BOND
     1     1     9    1
     2     1    27    1
     3     2     3    1
     4     2     4    1
     5     2     7    1
     6     2     8    1
     7     3     4    1
     8     3     5    1
     9     3    12    1
    10     4     6    1
    11     4    13    1
    12     5     9    1
    13     5    14    1
    14     5    15    1
    15     6    10    2
    16     6    16    1
    17     7    17    1
    18     7    18    1
    19     7    19    1
    20     8    20    1
    21     8    21    1
    22     8    22    1
    23     9    10    1
    24     9    23    1
    25    10    11    1
    26    11    24    1
    27    11    25    1
    28    11    26    1
