@<TRIPOS>MOLECULE
IMPHY002822
 32 34 0 0 0
SMALL
GASTEIGER

@<TRIPOS>ATOM
      1 O           4.6660    1.8246    0.0000 O.2     1  UNL1       -0.2865
      2 O           4.6660   -2.1754    0.0000 O.2     1  UNL1       -0.2866
      3 O           8.1962   -1.1995    0.0000 O.3     1  UNL1       -0.5059
      4 O           2.9176    1.8592    0.0000 O.3     1  UNL1       -0.5060
      5 O           9.0641    0.3521    0.0000 O.3     1  UNL1       -0.4770
      6 O           8.1923    1.8488    0.0000 O.2     1  UNL1       -0.2450
      7 C           5.5321    0.3246    0.0000 C.ar    1  UNL1        0.0371
      8 C           5.5321   -0.6754    0.0000 C.ar    1  UNL1        0.0368
      9 C           6.4260    0.8593    0.0000 C.ar    1  UNL1       -0.0215
     10 C           3.8000    0.3246    0.0000 C.ar    1  UNL1        0.0744
     11 C           3.8000   -0.6754    0.0000 C.ar    1  UNL1        0.0366
     12 C           4.6660    0.8246    0.0000 C.2     1  UNL1        0.1983
     13 C           4.6660   -1.1754    0.0000 C.2     1  UNL1        0.1947
     14 C           7.3321    0.3454    0.0000 C.ar    1  UNL1        0.1037
     15 C           6.4260   -1.2100    0.0000 C.ar    1  UNL1       -0.0078
     16 C           7.3321   -0.6962    0.0000 C.ar    1  UNL1        0.1318
     17 C           2.9061    0.8593    0.0000 C.ar    1  UNL1        0.1283
     18 C           6.4144    1.8592    0.0000 C.3     1  UNL1       -0.0381
     19 C           2.9061   -1.2100    0.0000 C.ar    1  UNL1       -0.0500
     20 C           2.0000    0.3454    0.0000 C.ar    1  UNL1       -0.0194
     21 C           2.0000   -0.6962    0.0000 C.ar    1  UNL1       -0.0576
     22 C           8.1962    0.8488    0.0000 C.2     1  UNL1        0.3406
     23 H           6.4188   -1.8300    0.0000 H       1  UNL1        0.0661
     24 H           7.0344    1.8664    0.0000 H       1  UNL1        0.0278
     25 H           6.4073    2.4792    0.0000 H       1  UNL1        0.0278
     26 H           5.7945    1.8520    0.0000 H       1  UNL1        0.0278
     27 H           2.9132   -1.8300    0.0000 H       1  UNL1        0.0625
     28 H           1.4643    0.6575    0.0000 H       1  UNL1        0.0654
     29 H           1.4643   -1.0083    0.0000 H       1  UNL1        0.0619
     30 H           8.1938   -1.8195    0.0000 H       1  UNL1        0.2922
     31 H           2.3843    2.1754    0.0000 H       1  UNL1        0.2922
     32 H           9.5998    0.6642    0.0000 H       1  UNL1        0.2954
@<TRIPOS>BOND
     1     1    12    2
     2     2    13    2
     3     3    16    1
     4     3    30    1
     5     4    17    1
     6     4    31    1
     7     5    22    1
     8     5    32    1
     9     6    22    2
    10     7     8   ar
    11     7     9   ar
    12     7    12    1
    13     8    13    1
    14     8    15   ar
    15     9    14   ar
    16     9    18    1
    17    10    11   ar
    18    10    12    1
    19    10    17   ar
    20    11    13    1
    21    11    19   ar
    22    14    16   ar
    23    14    22    1
    24    15    16   ar
    25    15    23    1
    26    17    20   ar
    27    18    24    1
    28    18    25    1
    29    18    26    1
    30    19    21   ar
    31    19    27    1
    32    20    21   ar
    33    20    28    1
    34    21    29    1
