@<TRIPOS>MOLECULE
IMPHY004264
 40 41 0 0 0
SMALL
GASTEIGER

@<TRIPOS>ATOM
      1 O           3.1861   -0.3132    0.0000 O.3     1  UNL1       -0.3631
      2 O           5.5466    1.1574    0.0000 O.3     1  UNL1       -0.3533
      3 O           2.9485    0.6574    0.0000 O.2     1  UNL1       -0.2895
      4 C           4.1806   -0.2087    0.0000 C.3     1  UNL1        0.0958
      5 C           4.6806    0.6574    0.0000 C.3     1  UNL1        0.1550
      6 C           4.5873   -1.1222    0.0000 C.3     1  UNL1       -0.0205
      7 C           2.9782   -1.2913    0.0000 C.3     1  UNL1        0.0851
      8 C           3.8442   -1.7913    0.0000 C.3     1  UNL1       -0.0179
      9 C           5.5466    2.1574    0.0000 C.3     1  UNL1        0.0838
     10 C           5.1806   -0.2087    0.0000 C.3     1  UNL1       -0.0260
     11 C           3.8146    1.1574    0.0000 C.2     1  UNL1        0.1897
     12 C           2.0000   -1.0834    0.0000 C.3     1  UNL1       -0.0322
     13 C           2.4782   -2.1574    0.0000 C.2     1  UNL1       -0.0600
     14 C           4.6806    2.6574    0.0000 C.2     1  UNL1       -0.0497
     15 C           3.8146    2.1574    0.0000 C.2     1  UNL1       -0.0175
     16 C           6.0466    3.0234    0.0000 C.3     1  UNL1       -0.0324
     17 C           6.5466    2.1574    0.0000 C.3     1  UNL1       -0.0324
     18 C           2.9782   -3.0234    0.0000 C.2     1  UNL1       -0.1000
     19 H           3.7176    0.5042    0.0000 H       1  UNL1        0.0630
     20 H           4.9518   -1.6238    0.0000 H       1  UNL1        0.0292
     21 H           5.1242   -0.8122    0.0000 H       1  UNL1        0.0292
     22 H           3.4798   -2.2929    0.0000 H       1  UNL1        0.0297
     23 H           4.3049   -2.2062    0.0000 H       1  UNL1        0.0297
     24 H           4.6436   -0.5187    0.0000 H       1  UNL1        0.0263
     25 H           5.4906   -0.7456    0.0000 H       1  UNL1        0.0263
     26 H           5.7175    0.1013    0.0000 H       1  UNL1        0.0263
     27 H           2.1289   -0.4770    0.0000 H       1  UNL1        0.0260
     28 H           1.3936   -0.9545    0.0000 H       1  UNL1        0.0260
     29 H           1.8711   -1.6899    0.0000 H       1  UNL1        0.0260
     30 H           1.8582   -2.1574    0.0000 H       1  UNL1        0.0594
     31 H           4.6806    3.2774    0.0000 H       1  UNL1        0.0601
     32 H           3.2776    2.4674    0.0000 H       1  UNL1        0.0651
     33 H           6.5835    2.7134    0.0000 H       1  UNL1        0.0260
     34 H           6.3566    3.5603    0.0000 H       1  UNL1        0.0260
     35 H           5.5097    3.3334    0.0000 H       1  UNL1        0.0260
     36 H           6.5466    1.5374    0.0000 H       1  UNL1        0.0260
     37 H           7.1666    2.1574    0.0000 H       1  UNL1        0.0260
     38 H           6.5466    2.7774    0.0000 H       1  UNL1        0.0260
     39 H           2.6681   -3.5603    0.0000 H       1  UNL1        0.0533
     40 H           3.5982   -3.0234    0.0000 H       1  UNL1        0.0533
@<TRIPOS>BOND
     1     1     4    1
     2     1     7    1
     3     2     5    1
     4     2     9    1
     5     3    11    2
     6     4     5    1
     7     4     6    1
     8     4    19    1
     9     5    10    1
    10     5    11    1
    11     6     8    1
    12     6    20    1
    13     6    21    1
    14     7     8    1
    15     7    12    1
    16     7    13    1
    17     8    22    1
    18     8    23    1
    19     9    14    1
    20     9    16    1
    21     9    17    1
    22    10    24    1
    23    10    25    1
    24    10    26    1
    25    11    15    1
    26    12    27    1
    27    12    28    1
    28    12    29    1
    29    13    18    2
    30    13    30    1
    31    14    15    2
    32    14    31    1
    33    15    32    1
    34    16    33    1
    35    16    34    1
    36    16    35    1
    37    17    36    1
    38    17    37    1
    39    17    38    1
    40    18    39    1
    41    18    40    1
