@<TRIPOS>MOLECULE
IMPHY002924
 22 19 0 0 0
SMALL
GASTEIGER

@<TRIPOS>ATOM
      1 CL          0.0000    3.1550    0.0000 Cl      1  UNL1       -0.1454
      2 CL          4.3728    0.0000    0.0000 Cl      2  UNL2       -0.1454
      3 O           6.2087    5.3100    0.0000 O.3     3  UNL3       -0.4795
      4 OXT         5.3426    6.8100    0.0000 O.2     3  UNL3       -0.2493
      5 N           3.6106    5.8100    0.0000 N.3     3  UNL3       -0.3184
      6 N           3.6106    2.8100    0.0000 N.3     3  UNL3       -0.3299
      7 C           4.4766    4.3100    0.0000 C.3     3  UNL3       -0.0150
      8 CA          4.4766    5.3100    0.0000 C.3     3  UNL3        0.1044
      9 C           3.6106    3.8100    0.0000 C.3     3  UNL3       -0.0050
     10 C           5.3426    5.8100    0.0000 C.2     3  UNL3        0.3218
     11 H           4.6887    3.7274    0.0000 H       3  UNL3        0.0298
     12 H           5.0872    4.4177    0.0000 H       3  UNL3        0.0298
     13 HA          3.9397    5.0000    0.0000 H       3  UNL3        0.0574
     14 H           3.3985    4.3926    0.0000 H       3  UNL3        0.0422
     15 H           3.0000    3.7023    0.0000 H       3  UNL3        0.0422
     16 H1          3.0737    5.5000    0.0000 H       3  UNL3        0.1190
     17 H2          3.6106    6.4300    0.0000 H       3  UNL3        0.1190
     18 H           3.0737    2.5000    0.0000 H       3  UNL3        0.1182
     19 H           4.1475    2.5000    0.0000 H       3  UNL3        0.1182
     20 H           6.7456    5.6200    0.0000 H       3  UNL3        0.2951
     21 H           1.0000    3.1550    0.0000 H       1  UNL1        0.1454
     22 H           5.3728    0.0000    0.0000 H       2  UNL2        0.1454
@<TRIPOS>BOND
     1     1    21    1
     2     2    22    1
     3     3    10    1
     4     3    20    1
     5     4    10    2
     6     8     5    1
     7     5    16    1
     8     5    17    1
     9     6     9    1
    10     6    18    1
    11     6    19    1
    12     7     8    1
    13     7     9    1
    14     7    11    1
    15     7    12    1
    16     8    10    1
    17     8    13    1
    18     9    14    1
    19     9    15    1
