@<TRIPOS>MOLECULE
IMPHY016774
 34 36 0 0 0
SMALL
GASTEIGER

@<TRIPOS>ATOM
      1 S           7.8133   -0.5547    0.0000 S.2     1  UNL1        0.0183
      2 O           6.0010    2.2500    0.0000 O.2     1  UNL1       -0.2654
      3 N           4.2690   -0.7500    0.0000 N.pl3   1  UNL1       -0.2754
      4 N           2.5369   -1.7500    0.0000 N.3     1  UNL1       -0.3130
      5 N           6.0010   -0.7500    0.0000 N.ar    1  UNL1       -0.1688
      6 N           6.8671    0.7500    0.0000 N.ar    1  UNL1       -0.1312
      7 N           7.8133    1.0547    0.0000 N.ar    1  UNL1       -0.1557
      8 C           3.4030   -0.2500    0.0000 C.3     1  UNL1        0.0299
      9 C           4.2690   -1.7500    0.0000 C.3     1  UNL1        0.0299
     10 C           2.5369   -0.7500    0.0000 C.3     1  UNL1        0.0119
     11 C           3.4030   -2.2500    0.0000 C.3     1  UNL1        0.0119
     12 C           5.1350   -0.2500    0.0000 C.ar    1  UNL1        0.2793
     13 C           5.1350    0.7500    0.0000 C.ar    1  UNL1        0.0926
     14 C           6.8671   -0.2500    0.0000 C.ar    1  UNL1        0.3513
     15 C           6.0010    1.2500    0.0000 C.ar    1  UNL1        0.2845
     16 C           8.3969    0.2500    0.0000 C.ar    1  UNL1        0.1065
     17 C           9.3969    0.2500    0.0000 C.3     1  UNL1       -0.0048
     18 C           9.8969    1.1160    0.0000 C.3     1  UNL1       -0.0593
     19 H           3.8015    0.2249    0.0000 H       1  UNL1        0.0478
     20 H           3.0044    0.2249    0.0000 H       1  UNL1        0.0478
     21 H           4.4810   -2.3326    0.0000 H       1  UNL1        0.0478
     22 H           4.8796   -1.6423    0.0000 H       1  UNL1        0.0478
     23 H           2.3249   -0.1674    0.0000 H       1  UNL1        0.0439
     24 H           1.9264   -0.8577    0.0000 H       1  UNL1        0.0439
     25 H           3.0044   -2.7250    0.0000 H       1  UNL1        0.0439
     26 H           3.8015   -2.7250    0.0000 H       1  UNL1        0.0439
     27 H           2.0000   -2.0600    0.0000 H       1  UNL1        0.1220
     28 H           6.0010   -1.3700    0.0000 H       1  UNL1        0.4570
     29 H           4.5981    1.0600    0.0000 H       1  UNL1        0.0754
     30 H           9.2892   -0.3606    0.0000 H       1  UNL1        0.0331
     31 H           9.9795    0.0379    0.0000 H       1  UNL1        0.0331
     32 H          10.4338    0.8060    0.0000 H       1  UNL1        0.0234
     33 H          10.2069    1.6530    0.0000 H       1  UNL1        0.0234
     34 H           9.3600    1.4260    0.0000 H       1  UNL1        0.0234
@<TRIPOS>UNITY_ATOM_ATTR
5 1
charge 1
@<TRIPOS>BOND
     1     1    14   ar
     2     1    16   ar
     3     2    15    2
     4     3     8    1
     5     3     9    1
     6     3    12    1
     7     4    10    1
     8     4    11    1
     9     4    27    1
    10     5    12   ar
    11     5    14   ar
    12     5    28    1
    13     6     7   ar
    14     6    14   ar
    15     6    15   ar
    16     7    16   ar
    17     8    10    1
    18     8    19    1
    19     8    20    1
    20     9    11    1
    21     9    21    1
    22     9    22    1
    23    10    23    1
    24    10    24    1
    25    11    25    1
    26    11    26    1
    27    12    13   ar
    28    13    15   ar
    29    13    29    1
    30    16    17    1
    31    17    18    1
    32    17    30    1
    33    17    31    1
    34    18    32    1
    35    18    33    1
    36    18    34    1
