@<TRIPOS>MOLECULE
IMPHY003385
 53 55 0 0 0
SMALL
GASTEIGER

@<TRIPOS>ATOM
      1 O           6.8671   -1.0950    0.0000 O.3     1  UNL1       -0.3095
      2 O           9.4893   -0.4861    0.0000 O.3     1  UNL1       -0.3883
      3 O           6.0010    0.4050    0.0000 O.2     1  UNL1       -0.4701
      4 O           5.1350   -1.0950    0.0000 O.3     1  UNL1       -0.3404
      5 O           6.8671   -3.0950    0.0000 O.3     1  UNL1       -0.3841
      6 O           5.1350   -4.0950    0.0000 O.3     1  UNL1       -0.3864
      7 O           6.0010    3.4050    0.0000 O.3     1  UNL1       -0.4646
      8 O           3.4030   -3.0950    0.0000 O.3     1  UNL1       -0.3865
      9 O           7.7331    3.4050    0.0000 O.2     1  UNL1       -0.2452
     10 O           2.5369   -1.5950    0.0000 O.3     1  UNL1       -0.3924
     11 C           7.7331    0.4050    0.0000 C.3     1  UNL1        0.0572
     12 C           8.6793    0.1003    0.0000 C.3     1  UNL1        0.0724
     13 C           7.7331    1.4050    0.0000 C.3     1  UNL1        0.0050
     14 C           9.2629    0.9050    0.0000 C.3     1  UNL1       -0.0232
     15 C           8.6793    1.7097    0.0000 C.3     1  UNL1       -0.0427
     16 C           6.8671   -0.0950    0.0000 C.3     1  UNL1        0.2094
     17 C           6.8671    1.9050    0.0000 C.2     1  UNL1        0.0744
     18 C           8.3719   -0.8513    0.0000 C.3     1  UNL1       -0.0356
     19 C           6.0010   -1.5950    0.0000 C.3     1  UNL1        0.1918
     20 C           6.0010    1.4050    0.0000 C.2     1  UNL1        0.0981
     21 C           6.0010   -2.5950    0.0000 C.3     1  UNL1        0.1342
     22 C           5.1350   -3.0950    0.0000 C.3     1  UNL1        0.1141
     23 C           4.2690   -2.5950    0.0000 C.3     1  UNL1        0.1119
     24 C           4.2690   -1.5950    0.0000 C.3     1  UNL1        0.1130
     25 C           6.8671    2.9050    0.0000 C.2     1  UNL1        0.3381
     26 C           3.4030   -1.0950    0.0000 C.3     1  UNL1        0.0730
     27 C           6.0010    4.4050    0.0000 C.3     1  UNL1        0.0820
     28 H           7.8230   -0.4402    0.0000 H       1  UNL1        0.0395
     29 H           7.8230    2.2502    0.0000 H       1  UNL1        0.0358
     30 H           9.7238    0.4903    0.0000 H       1  UNL1        0.0293
     31 H           9.7238    1.3197    0.0000 H       1  UNL1        0.0293
     32 H           9.2167    2.0190    0.0000 H       1  UNL1        0.0272
     33 H           8.4283    2.2766    0.0000 H       1  UNL1        0.0272
     34 H           7.4040   -0.4050    0.0000 H       1  UNL1        0.1060
     35 H           7.7820   -0.6608    0.0000 H       1  UNL1        0.0257
     36 H           8.1814   -1.4413    0.0000 H       1  UNL1        0.0257
     37 H           8.9619   -1.0419    0.0000 H       1  UNL1        0.0257
     38 H          10.0553   -0.2330    0.0000 H       1  UNL1        0.2102
     39 H           6.0010   -0.9750    0.0000 H       1  UNL1        0.0939
     40 H           5.4641    1.7150    0.0000 H       1  UNL1        0.1029
     41 H           6.0010   -3.2150    0.0000 H       1  UNL1        0.0671
     42 H           4.5981   -3.4050    0.0000 H       1  UNL1        0.0648
     43 H           3.7320   -2.2850    0.0000 H       1  UNL1        0.0647
     44 H           4.2690   -0.9750    0.0000 H       1  UNL1        0.0647
     45 H           3.8015   -0.6201    0.0000 H       1  UNL1        0.0584
     46 H           3.0044   -0.6201    0.0000 H       1  UNL1        0.0584
     47 H           6.8671   -3.7150    0.0000 H       1  UNL1        0.2101
     48 H           4.5981   -4.4050    0.0000 H       1  UNL1        0.2100
     49 H           3.4030   -3.7150    0.0000 H       1  UNL1        0.2100
     50 H           2.0000   -1.2850    0.0000 H       1  UNL1        0.2095
     51 H           6.6210    4.4050    0.0000 H       1  UNL1        0.0661
     52 H           6.0010    5.0250    0.0000 H       1  UNL1        0.0661
     53 H           5.3810    4.4050    0.0000 H       1  UNL1        0.0661
@<TRIPOS>BOND
     1    16     1    1
     2    19     1    1
     3    12     2    1
     4     2    38    1
     5     3    16    1
     6     3    20    1
     7     4    19    1
     8     4    24    1
     9    21     5    1
    10     5    47    1
    11    22     6    1
    12     6    48    1
    13     7    25    1
    14     7    27    1
    15    23     8    1
    16     8    49    1
    17     9    25    2
    18    10    26    1
    19    10    50    1
    20    11    12    1
    21    11    13    1
    22    11    16    1
    23    11    28    1
    24    12    14    1
    25    12    18    1
    26    13    15    1
    27    13    17    1
    28    13    29    1
    29    14    15    1
    30    14    30    1
    31    14    31    1
    32    15    32    1
    33    15    33    1
    34    16    34    1
    35    17    20    2
    36    17    25    1
    37    18    35    1
    38    18    36    1
    39    18    37    1
    40    19    21    1
    41    19    39    1
    42    20    40    1
    43    21    22    1
    44    21    41    1
    45    22    23    1
    46    22    42    1
    47    23    24    1
    48    23    43    1
    49    24    26    1
    50    24    44    1
    51    26    45    1
    52    26    46    1
    53    27    51    1
    54    27    52    1
    55    27    53    1
