@<TRIPOS>MOLECULE
IMPHY017930
 10 10 0 0 0
SMALL
GASTEIGER

@<TRIPOS>ATOM
      1 O           2.0000    0.2500    0.0000 O.2     1  UNL1       -0.2917
      2 C           4.5981   -1.2500    0.0000 C.3     1  UNL1        0.0052
      3 C           4.5981   -0.2500    0.0000 C.3     1  UNL1        0.0286
      4 C           3.7321   -1.7500    0.0000 C.3     1  UNL1        0.0084
      5 C           2.8660   -1.2500    0.0000 C.3     1  UNL1        0.0688
      6 C           3.7321    0.2500    0.0000 C.2     1  UNL1        0.0046
      7 C           2.8660   -0.2500    0.0000 C.2     1  UNL1        0.1685
      8 C           3.7321    1.2500    0.0000 C.2     1  UNL1       -0.0448
      9 C           4.5981    1.7500    0.0000 C.3     1  UNL1        0.0261
     10 C           2.8660    1.7500    0.0000 C.3     1  UNL1        0.0261
@<TRIPOS>BOND
     1     1     7    2
     2     2     3    1
     3     2     4    1
     4     3     6    1
     5     4     5    1
     6     5     7    1
     7     6     7    1
     8     6     8    2
     9     8     9    1
    10     8    10    1
