@<TRIPOS>MOLECULE
IMPHY000103
 15 15 0 0 0
SMALL
GASTEIGER

@<TRIPOS>ATOM
      1 O           4.2690    1.3450    0.0000 O.3     1  UNL1       -0.5009
      2 O           2.5369    0.3450    0.0000 O.3     1  UNL1       -0.5032
      3 O           6.0010    0.3450    0.0000 O.3     1  UNL1       -0.5032
      4 C           4.2690    0.3450    0.0000 C.ar    1  UNL1        0.2006
      5 C           3.4030   -0.1550    0.0000 C.ar    1  UNL1        0.1620
      6 C           5.1350   -0.1550    0.0000 C.ar    1  UNL1        0.1620
      7 C           3.4030   -1.1550    0.0000 C.ar    1  UNL1       -0.0163
      8 C           5.1350   -1.1550    0.0000 C.ar    1  UNL1       -0.0163
      9 C           4.2690   -1.6550    0.0000 C.ar    1  UNL1       -0.0546
     10 H           2.8660   -1.4650    0.0000 H       1  UNL1        0.0655
     11 H           5.6720   -1.4650    0.0000 H       1  UNL1        0.0655
     12 H           4.2690   -2.2750    0.0000 H       1  UNL1        0.0620
     13 H           4.8059    1.6550    0.0000 H       1  UNL1        0.2924
     14 H           2.0000    0.0350    0.0000 H       1  UNL1        0.2923
     15 H           6.5380    0.0350    0.0000 H       1  UNL1        0.2923
@<TRIPOS>BOND
     1     1     4    1
     2     1    13    1
     3     2     5    1
     4     2    14    1
     5     3     6    1
     6     3    15    1
     7     4     5   ar
     8     4     6   ar
     9     5     7   ar
    10     6     8   ar
    11     7     9   ar
    12     7    10    1
    13     8     9   ar
    14     8    11    1
    15     9    12    1
