@<TRIPOS>MOLECULE
IMPHY006087
 29 32 0 0 0
SMALL
GASTEIGER

@<TRIPOS>ATOM
      1 O           5.9065   -0.6395    0.0000 O.2     1  UNL1       -0.4536
      2 O           8.0505    1.4290    0.0000 O.2     1  UNL1       -0.4213
      3 O           7.3193   -1.9961    0.0000 O.3     1  UNL1       -0.5058
      4 O           6.7634    2.5879    0.0000 O.2     1  UNL1       -0.2444
      5 O           2.4170    0.2647    0.0000 O.3     1  UNL1       -0.5066
      6 O          10.6901   -0.9152    0.0000 O.3     1  UNL1       -0.5065
      7 C           6.4033    0.8937    0.0000 C.ar    1  UNL1        0.1130
      8 C           6.7123   -0.0573    0.0000 C.ar    1  UNL1        0.1573
      9 C           5.4092    0.8911    0.0000 C.ar    1  UNL1        0.0351
     10 C           7.6904   -0.2652    0.0000 C.ar    1  UNL1        0.1019
     11 C           5.1028   -0.0545    0.0000 C.ar    1  UNL1        0.1400
     12 C           8.3596    0.4779    0.0000 C.ar    1  UNL1        0.1496
     13 C           7.0724    1.6369    0.0000 C.ar    1  UNL1        0.3488
     14 C           7.9970   -1.2607    0.0000 C.ar    1  UNL1        0.1345
     15 C           4.7276    1.6706    0.0000 C.ar    1  UNL1       -0.0467
     16 C           4.0936   -0.2863    0.0000 C.ar    1  UNL1        0.0228
     17 C           9.3816    0.2771    0.0000 C.ar    1  UNL1        0.0232
     18 C           9.0142   -1.4852    0.0000 C.ar    1  UNL1        0.0223
     19 C           3.7133    1.4623    0.0000 C.ar    1  UNL1       -0.0194
     20 C           3.3942    0.4772    0.0000 C.ar    1  UNL1        0.1204
     21 C           9.7112   -0.7111    0.0000 C.ar    1  UNL1        0.1239
     22 H           4.9255    2.2582    0.0000 H       1  UNL1        0.0626
     23 H           3.9094   -0.8783    0.0000 H       1  UNL1        0.0691
     24 H           9.7912    0.7426    0.0000 H       1  UNL1        0.0691
     25 H           9.2035   -2.0755    0.0000 H       1  UNL1        0.0691
     26 H           3.2998    1.9243    0.0000 H       1  UNL1        0.0654
     27 H           7.5041   -2.5879    0.0000 H       1  UNL1        0.2922
     28 H          11.1032   -0.4529    0.0000 H       1  UNL1        0.2921
     29 H           2.0000    0.7235    0.0000 H       1  UNL1        0.2921
@<TRIPOS>BOND
     1     1     8   ar
     2     1    11   ar
     3     2    12   ar
     4     2    13   ar
     5     3    14    1
     6     3    27    1
     7     4    13    2
     8     5    20    1
     9     5    29    1
    10     6    21    1
    11     6    28    1
    12     7     8   ar
    13     7     9   ar
    14     7    13   ar
    15     8    10   ar
    16     9    11   ar
    17     9    15   ar
    18    10    12   ar
    19    10    14   ar
    20    11    16   ar
    21    12    17   ar
    22    14    18   ar
    23    15    19   ar
    24    15    22    1
    25    16    20   ar
    26    16    23    1
    27    17    21   ar
    28    17    24    1
    29    18    21   ar
    30    18    25    1
    31    19    20   ar
    32    19    26    1
