@<TRIPOS>MOLECULE
IMPHY012918
 21 21 0 0 0
SMALL
GASTEIGER

@<TRIPOS>ATOM
      1 S           4.5032    0.7694    0.0000 S.3     1  UNL1       -0.1308
      2 S           5.0032   -0.7694    0.0000 S.3     1  UNL1       -0.0779
      3 S           4.0032   -0.7694    0.0000 S.3     1  UNL1       -0.0779
      4 C           5.3122    0.1816    0.0000 C.3     1  UNL1        0.0620
      5 C           3.6942    0.1816    0.0000 C.3     1  UNL1        0.0620
      6 C           6.2633    0.4907    0.0000 C.3     1  UNL1       -0.0340
      7 C           2.7431    0.4907    0.0000 C.3     1  UNL1       -0.0340
      8 C           7.0064   -0.1785    0.0000 C.3     1  UNL1       -0.0635
      9 C           2.0000   -0.1785    0.0000 C.3     1  UNL1       -0.0635
     10 H           5.7506   -0.2568    0.0000 H       1  UNL1        0.0534
     11 H           3.2558   -0.2568    0.0000 H       1  UNL1        0.0534
     12 H           6.7519    0.8724    0.0000 H       1  UNL1        0.0281
     13 H           5.9722    1.0381    0.0000 H       1  UNL1        0.0281
     14 H           3.0342    1.0381    0.0000 H       1  UNL1        0.0281
     15 H           2.2546    0.8724    0.0000 H       1  UNL1        0.0281
     16 H           6.5916   -0.6392    0.0000 H       1  UNL1        0.0230
     17 H           7.4672   -0.5933    0.0000 H       1  UNL1        0.0230
     18 H           7.4213    0.2823    0.0000 H       1  UNL1        0.0230
     19 H           1.5851    0.2823    0.0000 H       1  UNL1        0.0230
     20 H           1.5392   -0.5933    0.0000 H       1  UNL1        0.0230
     21 H           2.4149   -0.6392    0.0000 H       1  UNL1        0.0230
@<TRIPOS>BOND
     1     1     4    1
     2     1     5    1
     3     2     3    1
     4     2     4    1
     5     3     5    1
     6     4     6    1
     7     4    10    1
     8     5     7    1
     9     5    11    1
    10     6     8    1
    11     6    12    1
    12     6    13    1
    13     7     9    1
    14     7    14    1
    15     7    15    1
    16     8    16    1
    17     8    17    1
    18     8    18    1
    19     9    19    1
    20     9    20    1
    21     9    21    1
