@<TRIPOS>MOLECULE
IMPHY012480
 47 50 0 0 0
SMALL
GASTEIGER

@<TRIPOS>ATOM
      1 O           5.5103    1.5072    0.0000 O.3     1  UNL1       -0.4907
      2 O           9.0501    1.5209    0.0000 O.3     1  UNL1       -0.4907
      3 O           7.2762    2.5450    0.0000 O.3     1  UNL1       -0.4885
      4 O           6.3981   -3.0242    0.0000 O.2     1  UNL1       -0.2850
      5 O           2.8680   -0.0001    0.0000 O.3     1  UNL1       -0.4914
      6 O           2.8680   -2.0484    0.0000 O.3     1  UNL1       -0.4914
      7 N           8.1223   -2.0212    0.0000 N.ar    1  UNL1       -0.2511
      8 C           6.3981   -0.0242    0.0000 C.ar    1  UNL1        0.0383
      9 C           7.2641   -0.5242    0.0000 C.ar    1  UNL1        0.0262
     10 C           5.5320   -0.5242    0.0000 C.ar    1  UNL1        0.0009
     11 C           8.1741   -0.0174    0.0000 C.ar    1  UNL1        0.0318
     12 C           5.5320   -1.5242    0.0000 C.ar    1  UNL1        0.0353
     13 C           7.2641   -1.5242    0.0000 C.ar    1  UNL1        0.1194
     14 C           6.3820    1.0173    0.0000 C.ar    1  UNL1        0.1735
     15 C           6.3981   -2.0242    0.0000 C.2     1  UNL1        0.2125
     16 C           8.1821    1.0242    0.0000 C.ar    1  UNL1        0.1730
     17 C           7.2800    1.5450    0.0000 C.ar    1  UNL1        0.2048
     18 C           4.6381    0.0104    0.0000 C.ar    1  UNL1       -0.0078
     19 C           4.6381   -2.0589    0.0000 C.ar    1  UNL1       -0.0048
     20 C           9.0134   -0.5456    0.0000 C.ar    1  UNL1       -0.0322
     21 C           3.7320   -0.5034    0.0000 C.ar    1  UNL1        0.1621
     22 C           3.7320   -1.5450    0.0000 C.ar    1  UNL1        0.1622
     23 C           8.9878   -1.5370    0.0000 C.ar    1  UNL1        0.0291
     24 C           5.4987    2.5072    0.0000 C.3     1  UNL1        0.0790
     25 C           9.0539    2.5209    0.0000 C.3     1  UNL1        0.0790
     26 C           8.1403    3.0484    0.0000 C.3     1  UNL1        0.0791
     27 C           2.0000   -0.4967    0.0000 C.3     1  UNL1        0.0790
     28 C           2.8718   -3.0484    0.0000 C.3     1  UNL1        0.0790
     29 H           4.6453    0.6304    0.0000 H       1  UNL1        0.0662
     30 H           4.6453   -2.6788    0.0000 H       1  UNL1        0.0663
     31 H           9.5600   -0.2529    0.0000 H       1  UNL1        0.0640
     32 H           9.5185   -1.8575    0.0000 H       1  UNL1        0.0830
     33 H           6.1187    2.5143    0.0000 H       1  UNL1        0.0660
     34 H           5.4915    3.1271    0.0000 H       1  UNL1        0.0660
     35 H           4.8787    2.5000    0.0000 H       1  UNL1        0.0660
     36 H           9.6739    2.5185    0.0000 H       1  UNL1        0.0660
     37 H           9.0563    3.1409    0.0000 H       1  UNL1        0.0660
     38 H           8.4339    2.5233    0.0000 H       1  UNL1        0.0660
     39 H           8.4523    2.5126    0.0000 H       1  UNL1        0.0660
     40 H           8.6760    3.3604    0.0000 H       1  UNL1        0.0660
     41 H           7.8282    3.5841    0.0000 H       1  UNL1        0.0660
     42 H           1.6921    0.0414    0.0000 H       1  UNL1        0.0660
     43 H           1.4619   -0.8047    0.0000 H       1  UNL1        0.0660
     44 H           2.3079   -1.0349    0.0000 H       1  UNL1        0.0660
     45 H           2.2518   -3.0508    0.0000 H       1  UNL1        0.0660
     46 H           2.8742   -3.6684    0.0000 H       1  UNL1        0.0660
     47 H           3.4918   -3.0460    0.0000 H       1  UNL1        0.0660
@<TRIPOS>BOND
     1     1    14    1
     2     1    24    1
     3     2    16    1
     4     2    25    1
     5     3    17    1
     6     3    26    1
     7     4    15    2
     8     5    21    1
     9     5    27    1
    10     6    22    1
    11     6    28    1
    12     7    13   ar
    13     7    23   ar
    14     8     9   ar
    15     8    10    1
    16     8    14   ar
    17     9    11   ar
    18     9    13   ar
    19    10    12   ar
    20    10    18   ar
    21    11    16   ar
    22    11    20   ar
    23    12    15    1
    24    12    19   ar
    25    13    15    1
    26    14    17   ar
    27    16    17   ar
    28    18    21   ar
    29    18    29    1
    30    19    22   ar
    31    19    30    1
    32    20    23   ar
    33    20    31    1
    34    21    22   ar
    35    23    32    1
    36    24    33    1
    37    24    34    1
    38    24    35    1
    39    25    36    1
    40    25    37    1
    41    25    38    1
    42    26    39    1
    43    26    40    1
    44    26    41    1
    45    27    42    1
    46    27    43    1
    47    27    44    1
    48    28    45    1
    49    28    46    1
    50    28    47    1
