@<TRIPOS>MOLECULE
IMPHY008005
 16 15 0 0 0
SMALL
GASTEIGER

@<TRIPOS>ATOM
      1 S           6.3301    1.0000    0.0000 S.2     1  UNL1        0.0203
      2 N           4.5981    0.0000    0.0000 N.2     1  UNL1       -0.2343
      3 C           2.8660    0.0000    0.0000 C.3     1  UNL1       -0.0264
      4 C           3.7320    0.5000    0.0000 C.3     1  UNL1        0.0518
      5 C           2.0000    0.5000    0.0000 C.3     1  UNL1       -0.0610
      6 C           2.8660   -1.0000    0.0000 C.3     1  UNL1       -0.0610
      7 C           5.4641    0.5000    0.0000 C.1     1  UNL1        0.0358
      8 H           2.8660    0.6200    0.0000 H       1  UNL1        0.0313
      9 H           4.1306    0.9749    0.0000 H       1  UNL1        0.0518
     10 H           3.3335    0.9749    0.0000 H       1  UNL1        0.0518
     11 H           2.3100    1.0369    0.0000 H       1  UNL1        0.0233
     12 H           1.4631    0.8100    0.0000 H       1  UNL1        0.0233
     13 H           1.6900   -0.0369    0.0000 H       1  UNL1        0.0233
     14 H           2.2460   -1.0000    0.0000 H       1  UNL1        0.0233
     15 H           2.8660   -1.6200    0.0000 H       1  UNL1        0.0233
     16 H           3.4860   -1.0000    0.0000 H       1  UNL1        0.0233
@<TRIPOS>BOND
     1     1     7    2
     2     2     4    1
     3     2     7    2
     4     3     4    1
     5     3     5    1
     6     3     6    1
     7     3     8    1
     8     4     9    1
     9     4    10    1
    10     5    11    1
    11     5    12    1
    12     5    13    1
    13     6    14    1
    14     6    15    1
    15     6    16    1
