@<TRIPOS>MOLECULE
IMPHY007219
 20 19 0 0 0
SMALL
GASTEIGER

@<TRIPOS>ATOM
      1 O           4.5981   -0.2500    0.0000 O.3     1  UNL1       -0.4646
      2 O           5.4641    1.2500    0.0000 O.2     1  UNL1       -0.2512
      3 C           2.8660   -0.2500    0.0000 C.3     1  UNL1       -0.0123
      4 C           3.7320    0.2500    0.0000 C.3     1  UNL1        0.0947
      5 C           2.0000    0.2500    0.0000 C.3     1  UNL1       -0.0596
      6 C           2.8660   -1.2500    0.0000 C.3     1  UNL1       -0.0596
      7 C           5.4641    0.2500    0.0000 C.2     1  UNL1        0.3040
      8 C           6.3301   -0.2500    0.0000 C.3     1  UNL1        0.0332
      9 H           2.8660    0.3700    0.0000 H       1  UNL1        0.0328
     10 H           4.1306    0.7249    0.0000 H       1  UNL1        0.0700
     11 H           3.3335    0.7249    0.0000 H       1  UNL1        0.0700
     12 H           2.3100    0.7869    0.0000 H       1  UNL1        0.0233
     13 H           1.4631    0.5600    0.0000 H       1  UNL1        0.0233
     14 H           1.6900   -0.2869    0.0000 H       1  UNL1        0.0233
     15 H           2.2460   -1.2500    0.0000 H       1  UNL1        0.0233
     16 H           2.8660   -1.8700    0.0000 H       1  UNL1        0.0233
     17 H           3.4860   -1.2500    0.0000 H       1  UNL1        0.0233
     18 H           6.0201   -0.7869    0.0000 H       1  UNL1        0.0342
     19 H           6.8671   -0.5600    0.0000 H       1  UNL1        0.0342
     20 H           6.6401    0.2869    0.0000 H       1  UNL1        0.0342
@<TRIPOS>BOND
     1     1     4    1
     2     1     7    1
     3     2     7    2
     4     3     4    1
     5     3     5    1
     6     3     6    1
     7     3     9    1
     8     4    10    1
     9     4    11    1
    10     5    12    1
    11     5    13    1
    12     5    14    1
    13     6    15    1
    14     6    16    1
    15     6    17    1
    16     7     8    1
    17     8    18    1
    18     8    19    1
    19     8    20    1
