@<TRIPOS>MOLECULE
IMPHY004803
 42 45 0 0 0
SMALL
GASTEIGER

@<TRIPOS>ATOM
      1 O           6.3582    0.8775    0.0000 O.2     1  UNL1       -0.4236
      2 O           8.1421    0.5032    0.0000 O.2     1  UNL1       -0.4237
      3 O           2.8687   -0.0268    0.0000 O.3     1  UNL1       -0.5064
      4 O           7.2151   -2.3500    0.0000 O.2     1  UNL1       -0.2861
      5 O           8.8672   -2.9232    0.0000 O.3     1  UNL1       -0.5058
      6 O          11.5069   -0.5647    0.0000 O.3     1  UNL1       -0.5065
      7 C           5.8609   -0.6532    0.0000 C.ar    1  UNL1        0.0355
      8 C           5.5545    0.2925    0.0000 C.ar    1  UNL1        0.1468
      9 C           6.8550   -0.6558    0.0000 C.ar    1  UNL1        0.1136
     10 C           4.5453    0.5242    0.0000 C.ar    1  UNL1        0.0406
     11 C           7.1640    0.2953    0.0000 C.ar    1  UNL1        0.3042
     12 C           7.5241   -1.3989    0.0000 C.ar    1  UNL1        0.2076
     13 C           4.2482    1.4790    0.0000 C.3     1  UNL1       -0.0023
     14 C           8.5022   -1.1910    0.0000 C.ar    1  UNL1        0.1063
     15 C           5.1793   -1.4327    0.0000 C.ar    1  UNL1       -0.0467
     16 C           3.8459   -0.2393    0.0000 C.ar    1  UNL1        0.1239
     17 C           8.8113   -0.2400    0.0000 C.ar    1  UNL1        0.1496
     18 C           4.1650   -1.2244    0.0000 C.ar    1  UNL1       -0.0191
     19 C           9.1872   -1.9758    0.0000 C.ar    1  UNL1        0.1347
     20 C           3.2727    1.6991    0.0000 C.2     1  UNL1       -0.0807
     21 C           9.8267   -0.0077    0.0000 C.ar    1  UNL1        0.0232
     22 C          10.2077   -1.7671    0.0000 C.ar    1  UNL1        0.0223
     23 C          10.5296   -0.7764    0.0000 C.ar    1  UNL1        0.1239
     24 C           2.9755    2.6539    0.0000 C.2     1  UNL1       -0.0793
     25 C           2.0000    2.8740    0.0000 C.3     1  UNL1       -0.0440
     26 C           3.6538    3.3887    0.0000 C.3     1  UNL1       -0.0440
     27 H           4.8631    1.5577    0.0000 H       1  UNL1        0.0358
     28 H           4.2775    2.0984    0.0000 H       1  UNL1        0.0358
     29 H           5.3772   -2.0203    0.0000 H       1  UNL1        0.0626
     30 H           3.7515   -1.6864    0.0000 H       1  UNL1        0.0654
     31 H           2.8521    1.2435    0.0000 H       1  UNL1        0.0575
     32 H          10.0114    0.5841    0.0000 H       1  UNL1        0.0691
     33 H          10.6208   -2.2294    0.0000 H       1  UNL1        0.0691
     34 H           2.4517   -0.4856    0.0000 H       1  UNL1        0.2921
     35 H           2.1364    3.4788    0.0000 H       1  UNL1        0.0274
     36 H           1.3952    3.0104    0.0000 H       1  UNL1        0.0274
     37 H           1.8636    2.2692    0.0000 H       1  UNL1        0.0274
     38 H           4.1094    2.9681    0.0000 H       1  UNL1        0.0274
     39 H           4.0744    3.8443    0.0000 H       1  UNL1        0.0274
     40 H           3.1982    3.8092    0.0000 H       1  UNL1        0.0274
     41 H           9.2767   -3.3887    0.0000 H       1  UNL1        0.2922
     42 H          11.9236   -1.0239    0.0000 H       1  UNL1        0.2921
@<TRIPOS>BOND
     1     1     8   ar
     2     1    11   ar
     3     2    11   ar
     4     2    17   ar
     5     3    16    1
     6     3    34    1
     7     4    12    2
     8     5    19    1
     9     5    41    1
    10     6    23    1
    11     6    42    1
    12     7     8   ar
    13     7     9   ar
    14     7    15   ar
    15     8    10   ar
    16     9    11   ar
    17     9    12   ar
    18    10    13    1
    19    10    16   ar
    20    12    14   ar
    21    13    20    1
    22    13    27    1
    23    13    28    1
    24    14    17   ar
    25    14    19   ar
    26    15    18   ar
    27    15    29    1
    28    16    18   ar
    29    17    21   ar
    30    18    30    1
    31    19    22   ar
    32    20    24    2
    33    20    31    1
    34    21    23   ar
    35    21    32    1
    36    22    23   ar
    37    22    33    1
    38    24    25    1
    39    24    26    1
    40    25    35    1
    41    25    36    1
    42    25    37    1
    43    26    38    1
    44    26    39    1
    45    26    40    1
