@<TRIPOS>MOLECULE
IMPHY017249
 25 24 0 0 0
SMALL
GASTEIGER

@<TRIPOS>ATOM
      1 O           4.5981   -1.2500    0.0000 O.2     1  UNL1       -0.2971
      2 C           5.4641    0.2500    0.0000 C.3     1  UNL1        0.0144
      3 C           6.3301   -0.2500    0.0000 C.3     1  UNL1       -0.0466
      4 C           4.5981   -0.2500    0.0000 C.2     1  UNL1        0.1361
      5 C           3.7320    0.2500    0.0000 C.3     1  UNL1        0.0058
      6 C           5.4641    1.2500    0.0000 C.3     1  UNL1       -0.0557
      7 C           2.8660   -0.2500    0.0000 C.3     1  UNL1       -0.0492
      8 C           7.1962    0.2500    0.0000 C.3     1  UNL1       -0.0646
      9 C           2.0000    0.2500    0.0000 C.3     1  UNL1       -0.0649
     10 H           6.2002    0.6750    0.0000 H       1  UNL1        0.0374
     11 H           5.9316   -0.7249    0.0000 H       1  UNL1        0.0269
     12 H           6.7287   -0.7249    0.0000 H       1  UNL1        0.0269
     13 H           4.1306    0.7249    0.0000 H       1  UNL1        0.0342
     14 H           3.3335    0.7249    0.0000 H       1  UNL1        0.0342
     15 H           6.0841    1.2500    0.0000 H       1  UNL1        0.0236
     16 H           5.4641    1.8700    0.0000 H       1  UNL1        0.0236
     17 H           4.8441    1.2500    0.0000 H       1  UNL1        0.0236
     18 H           2.4675   -0.7249    0.0000 H       1  UNL1        0.0267
     19 H           3.2646   -0.7249    0.0000 H       1  UNL1        0.0267
     20 H           7.5062   -0.2869    0.0000 H       1  UNL1        0.0230
     21 H           7.7331    0.5600    0.0000 H       1  UNL1        0.0230
     22 H           6.8862    0.7869    0.0000 H       1  UNL1        0.0230
     23 H           2.3100    0.7869    0.0000 H       1  UNL1        0.0230
     24 H           1.4631    0.5600    0.0000 H       1  UNL1        0.0230
     25 H           1.6900   -0.2869    0.0000 H       1  UNL1        0.0230
@<TRIPOS>BOND
     1     1     4    2
     2     2     3    1
     3     2     4    1
     4     2     6    1
     5     2    10    1
     6     3     8    1
     7     3    11    1
     8     3    12    1
     9     4     5    1
    10     5     7    1
    11     5    13    1
    12     5    14    1
    13     6    15    1
    14     6    16    1
    15     6    17    1
    16     7     9    1
    17     7    18    1
    18     7    19    1
    19     8    20    1
    20     8    21    1
    21     8    22    1
    22     9    23    1
    23     9    24    1
    24     9    25    1
