@<TRIPOS>MOLECULE
IMPHY002490
 105 110 0 0 0
SMALL
GASTEIGER

@<TRIPOS>ATOM
      1 O           5.1247   -0.3945    0.0000 O.3     1  UNL1       -0.3912
      2 O           6.8671   -4.4673    0.0000 O.3     1  UNL1       -0.3449
      3 O           8.6575    3.6364    0.0000 O.3     1  UNL1       -0.3915
      4 O           5.1350   -4.4673    0.0000 O.3     1  UNL1       -0.3405
      5 O           6.8671   -6.4673    0.0000 O.3     1  UNL1       -0.3841
      6 O           5.1350   -7.4673    0.0000 O.3     1  UNL1       -0.3864
      7 O           7.4222    6.2734    0.0000 O.2     1  UNL1       -0.2971
      8 O           3.4030   -6.4673    0.0000 O.3     1  UNL1       -0.3865
      9 O           2.5369   -4.9673    0.0000 O.3     1  UNL1       -0.3924
     10 C           6.8948   -0.3982    0.0000 C.3     1  UNL1        0.0065
     11 C           6.8910   -1.3982    0.0000 C.3     1  UNL1       -0.0169
     12 C           6.0264   -0.8948    0.0000 C.3     1  UNL1       -0.0377
     13 C           7.7628    0.0985    0.0000 C.3     1  UNL1       -0.0265
     14 C           7.7551   -1.9015    0.0000 C.3     1  UNL1       -0.0272
     15 C           7.7829    1.1399    0.0000 C.3     1  UNL1       -0.0205
     16 C           5.9868    0.1122    0.0000 C.3     1  UNL1        0.0622
     17 C           6.8869    1.6711    0.0000 C.3     1  UNL1       -0.0186
     18 C           5.9790   -1.9015    0.0000 C.3     1  UNL1       -0.0441
     19 C           8.6269   -0.4048    0.0000 C.3     1  UNL1       -0.0488
     20 C           5.9828    1.1538    0.0000 C.3     1  UNL1       -0.0200
     21 C           8.6230   -1.4048    0.0000 C.3     1  UNL1       -0.0488
     22 C           7.7671   -2.9430    0.0000 C.3     1  UNL1       -0.0052
     23 C           7.1165    2.6808    0.0000 C.3     1  UNL1       -0.0064
     24 C           8.5586    1.8259    0.0000 C.3     1  UNL1       -0.0204
     25 C           5.9670   -2.9430    0.0000 C.3     1  UNL1       -0.0255
     26 C           6.8671   -3.4673    0.0000 C.3     1  UNL1        0.0672
     27 C           8.1475    2.7763    0.0000 C.3     1  UNL1        0.0593
     28 C           8.6430    0.6299    0.0000 C.3     1  UNL1       -0.0587
     29 C           6.0267    2.1811    0.0000 C.3     1  UNL1       -0.0586
     30 C           6.4573    3.4328    0.0000 C.3     1  UNL1       -0.0378
     31 C           8.7671   -2.9354    0.0000 C.3     1  UNL1       -0.0572
     32 C           8.2738   -3.8052    0.0000 C.3     1  UNL1       -0.0572
     33 C           6.7789    4.3797    0.0000 C.3     1  UNL1       -0.0434
     34 C           5.4765    3.2379    0.0000 C.3     1  UNL1       -0.0621
     35 C           6.0010   -4.9673    0.0000 C.3     1  UNL1        0.1882
     36 C           6.1197    5.1316    0.0000 C.3     1  UNL1        0.0063
     37 C           6.0010   -5.9673    0.0000 C.3     1  UNL1        0.1341
     38 C           6.4414    6.0785    0.0000 C.2     1  UNL1        0.1359
     39 C           5.1350   -6.4673    0.0000 C.3     1  UNL1        0.1141
     40 C           4.2690   -4.9673    0.0000 C.3     1  UNL1        0.1130
     41 C           4.2690   -5.9673    0.0000 C.3     1  UNL1        0.1119
     42 C           5.7822    6.8305    0.0000 C.3     1  UNL1        0.0119
     43 C           3.4030   -4.4673    0.0000 C.3     1  UNL1        0.0730
     44 C           6.1038    7.7773    0.0000 C.3     1  UNL1       -0.0560
     45 C           4.8013    6.6356    0.0000 C.3     1  UNL1       -0.0560
     46 H           5.6297   -0.4183    0.0000 H       1  UNL1        0.0277
     47 H           5.6261   -1.3683    0.0000 H       1  UNL1        0.0277
     48 H           8.5038    0.5150    0.0000 H       1  UNL1        0.0313
     49 H           8.4928   -2.3237    0.0000 H       1  UNL1        0.0312
     50 H           5.4481    0.4191    0.0000 H       1  UNL1        0.0599
     51 H           5.7768   -1.3154    0.0000 H       1  UNL1        0.0272
     52 H           5.3670   -2.0005    0.0000 H       1  UNL1        0.0272
     53 H           9.2370   -0.5149    0.0000 H       1  UNL1        0.0268
     54 H           8.8412    0.1769    0.0000 H       1  UNL1        0.0268
     55 H           5.7715    1.7367    0.0000 H       1  UNL1        0.0296
     56 H           5.3724    1.0454    0.0000 H       1  UNL1        0.0296
     57 H           8.8328   -1.9883    0.0000 H       1  UNL1        0.0268
     58 H           9.2340   -1.2995    0.0000 H       1  UNL1        0.0268
     59 H           7.4313    3.4704    0.0000 H       1  UNL1        0.0334
     60 H           8.9182    1.3208    0.0000 H       1  UNL1        0.0296
     61 H           9.0986    2.1304    0.0000 H       1  UNL1        0.0296
     62 H           5.3574   -2.8299    0.0000 H       1  UNL1        0.0290
     63 H           5.7512   -3.5243    0.0000 H       1  UNL1        0.0290
     64 H           7.4046   -3.7763    0.0000 H       1  UNL1        0.0602
     65 H           8.7663    2.7369    0.0000 H       1  UNL1        0.0596
     66 H           8.3269    0.0966    0.0000 H       1  UNL1        0.0235
     67 H           9.1764    0.3138    0.0000 H       1  UNL1        0.0235
     68 H           8.9592    1.1633    0.0000 H       1  UNL1        0.0235
     69 H           6.3429    2.7144    0.0000 H       1  UNL1        0.0235
     70 H           5.4934    2.4973    0.0000 H       1  UNL1        0.0235
     71 H           5.7105    1.6478    0.0000 H       1  UNL1        0.0235
     72 H           6.2579    2.8457    0.0000 H       1  UNL1        0.0302
     73 H           4.5854   -0.0886    0.0000 H       1  UNL1        0.2098
     74 H           7.7393   -4.1193    0.0000 H       1  UNL1        0.0236
     75 H           8.5879   -4.3397    0.0000 H       1  UNL1        0.0236
     76 H           8.8083   -3.4911    0.0000 H       1  UNL1        0.0236
     77 H           8.7719   -3.5553    0.0000 H       1  UNL1        0.0236
     78 H           9.3871   -2.9306    0.0000 H       1  UNL1        0.0236
     79 H           8.7623   -2.3154    0.0000 H       1  UNL1        0.0236
     80 H           9.2775    3.6293    0.0000 H       1  UNL1        0.2098
     81 H           7.3224    4.0813    0.0000 H       1  UNL1        0.0272
     82 H           7.1671    4.8631    0.0000 H       1  UNL1        0.0272
     83 H           5.3556    3.8460    0.0000 H       1  UNL1        0.0233
     84 H           4.8683    3.1171    0.0000 H       1  UNL1        0.0233
     85 H           5.5973    2.6298    0.0000 H       1  UNL1        0.0233
     86 H           6.0010   -4.3473    0.0000 H       1  UNL1        0.0937
     87 H           5.5762    5.4300    0.0000 H       1  UNL1        0.0342
     88 H           5.7316    4.6482    0.0000 H       1  UNL1        0.0342
     89 H           6.5380   -5.6573    0.0000 H       1  UNL1        0.0671
     90 H           5.6720   -6.7773    0.0000 H       1  UNL1        0.0648
     91 H           4.2690   -4.3473    0.0000 H       1  UNL1        0.0647
     92 H           3.7320   -5.6573    0.0000 H       1  UNL1        0.0647
     93 H           6.8671   -7.0873    0.0000 H       1  UNL1        0.2101
     94 H           5.3735    7.2967    0.0000 H       1  UNL1        0.0372
     95 H           3.8015   -3.9924    0.0000 H       1  UNL1        0.0584
     96 H           3.0044   -3.9924    0.0000 H       1  UNL1        0.0584
     97 H           4.5981   -7.7773    0.0000 H       1  UNL1        0.2100
     98 H           3.4030   -7.0873    0.0000 H       1  UNL1        0.2100
     99 H           4.6805    7.2437    0.0000 H       1  UNL1        0.0236
    100 H           6.6908    7.5779    0.0000 H       1  UNL1        0.0236
    101 H           4.1932    6.5148    0.0000 H       1  UNL1        0.0236
    102 H           4.9222    6.0275    0.0000 H       1  UNL1        0.0236
    103 H           6.3032    8.3644    0.0000 H       1  UNL1        0.0236
    104 H           5.5167    7.9768    0.0000 H       1  UNL1        0.0236
    105 H           2.0000   -4.6573    0.0000 H       1  UNL1        0.2095
@<TRIPOS>BOND
     1    16     1    1
     2     1    73    1
     3    26     2    1
     4    35     2    1
     5    27     3    1
     6     3    80    1
     7     4    35    1
     8     4    40    1
     9    37     5    1
    10     5    93    1
    11    39     6    1
    12     6    97    1
    13     7    38    2
    14    41     8    1
    15     8    98    1
    16     9    43    1
    17     9   105    1
    18    10    11    1
    19    10    12    1
    20    10    13    1
    21    10    16    1
    22    11    12    1
    23    11    14    1
    24    11    18    1
    25    12    46    1
    26    12    47    1
    27    13    15    1
    28    13    19    1
    29    13    48    1
    30    14    21    1
    31    14    22    1
    32    14    49    1
    33    15    17    1
    34    15    24    1
    35    15    28    1
    36    16    20    1
    37    16    50    1
    38    17    20    1
    39    17    23    1
    40    17    29    1
    41    18    25    1
    42    18    51    1
    43    18    52    1
    44    19    21    1
    45    19    53    1
    46    19    54    1
    47    20    55    1
    48    20    56    1
    49    21    57    1
    50    21    58    1
    51    22    26    1
    52    22    31    1
    53    22    32    1
    54    23    27    1
    55    23    30    1
    56    23    59    1
    57    24    27    1
    58    24    60    1
    59    24    61    1
    60    25    26    1
    61    25    62    1
    62    25    63    1
    63    26    64    1
    64    27    65    1
    65    28    66    1
    66    28    67    1
    67    28    68    1
    68    29    69    1
    69    29    70    1
    70    29    71    1
    71    30    33    1
    72    30    34    1
    73    30    72    1
    74    31    77    1
    75    31    78    1
    76    31    79    1
    77    32    74    1
    78    32    75    1
    79    32    76    1
    80    33    36    1
    81    33    81    1
    82    33    82    1
    83    34    83    1
    84    34    84    1
    85    34    85    1
    86    35    37    1
    87    35    86    1
    88    36    38    1
    89    36    87    1
    90    36    88    1
    91    37    39    1
    92    37    89    1
    93    38    42    1
    94    39    41    1
    95    39    90    1
    96    40    41    1
    97    40    43    1
    98    40    91    1
    99    41    92    1
   100    42    44    1
   101    42    45    1
   102    42    94    1
   103    43    95    1
   104    43    96    1
   105    44   100    1
   106    44   103    1
   107    44   104    1
   108    45    99    1
   109    45   101    1
   110    45   102    1
