@<TRIPOS>MOLECULE
IMPHY014621
 58 61 0 0 0
SMALL
GASTEIGER

@<TRIPOS>ATOM
      1 O           5.1350   -2.8813    0.0000 O.3     1  UNL1       -0.3313
      2 O           6.8671   -2.8813    0.0000 O.3     1  UNL1       -0.4535
      3 O           5.1350   -5.8813    0.0000 O.3     1  UNL1       -0.3864
      4 O           3.4030   -4.8813    0.0000 O.3     1  UNL1       -0.3865
      5 O           6.8671   -4.8813    0.0000 O.3     1  UNL1       -0.3829
      6 O           2.5369   -3.3813    0.0000 O.3     1  UNL1       -0.3924
      7 O           6.8510    1.1602    0.0000 O.2     1  UNL1       -0.4544
      8 O           5.1350   -1.8813    0.0000 O.3     1  UNL1       -0.4912
      9 O           8.5991   -1.8813    0.0000 O.3     1  UNL1       -0.5027
     10 O           9.5033   -0.3844    0.0000 O.2     1  UNL1       -0.2869
     11 O           7.7336    5.6880    0.0000 O.3     1  UNL1       -0.4951
     12 C           5.1350   -4.8813    0.0000 C.3     1  UNL1        0.1152
     13 C           4.2690   -4.3813    0.0000 C.3     1  UNL1        0.1120
     14 C           6.0010   -4.3813    0.0000 C.3     1  UNL1        0.1454
     15 C           4.2690   -3.3813    0.0000 C.3     1  UNL1        0.1140
     16 C           6.0010   -3.3813    0.0000 C.3     1  UNL1        0.2311
     17 C           3.4030   -2.8813    0.0000 C.3     1  UNL1        0.0731
     18 C           6.8671   -1.8813    0.0000 C.ar    1  UNL1        0.2074
     19 C           7.7331   -1.3813    0.0000 C.ar    1  UNL1        0.1769
     20 C           6.0010   -1.3813    0.0000 C.ar    1  UNL1        0.1688
     21 C           7.7331   -0.3813    0.0000 C.ar    1  UNL1        0.1091
     22 C           6.8671    0.1187    0.0000 C.ar    1  UNL1        0.1465
     23 C           6.0010   -0.3813    0.0000 C.ar    1  UNL1        0.0270
     24 C           8.6431    0.1256    0.0000 C.ar    1  UNL1        0.1967
     25 C           7.7490    1.6880    0.0000 C.ar    1  UNL1        0.1392
     26 C           8.6511    1.1672    0.0000 C.ar    1  UNL1        0.0288
     27 C           7.7452    2.6880    0.0000 C.ar    1  UNL1        0.0176
     28 C           4.2690   -1.3813    0.0000 C.3     1  UNL1        0.0790
     29 C           6.8772    3.1846    0.0000 C.ar    1  UNL1       -0.0476
     30 C           8.6093    3.1913    0.0000 C.ar    1  UNL1       -0.0476
     31 C           6.8734    4.1846    0.0000 C.ar    1  UNL1       -0.0193
     32 C           8.6054    4.1913    0.0000 C.ar    1  UNL1       -0.0193
     33 C           7.7375    4.6880    0.0000 C.ar    1  UNL1        0.1201
     34 C           8.5977    6.1913    0.0000 C.3     1  UNL1        0.0788
     35 H           4.5981   -5.1913    0.0000 H       1  UNL1        0.0648
     36 H           4.2690   -5.0013    0.0000 H       1  UNL1        0.0647
     37 H           6.0010   -5.0013    0.0000 H       1  UNL1        0.0683
     38 H           4.2690   -2.7613    0.0000 H       1  UNL1        0.0647
     39 H           6.0010   -2.7613    0.0000 H       1  UNL1        0.1084
     40 H           3.8015   -2.4063    0.0000 H       1  UNL1        0.0584
     41 H           3.0044   -2.4063    0.0000 H       1  UNL1        0.0584
     42 H           4.5981   -6.1913    0.0000 H       1  UNL1        0.2100
     43 H           3.4030   -5.5013    0.0000 H       1  UNL1        0.2100
     44 H           6.8671   -5.5013    0.0000 H       1  UNL1        0.2102
     45 H           2.0000   -3.0713    0.0000 H       1  UNL1        0.2095
     46 H           5.4641   -0.0713    0.0000 H       1  UNL1        0.0692
     47 H           9.1892    1.4751    0.0000 H       1  UNL1        0.0693
     48 H           8.5991   -2.5013    0.0000 H       1  UNL1        0.2923
     49 H           4.5790   -0.8443    0.0000 H       1  UNL1        0.0660
     50 H           3.7320   -1.0713    0.0000 H       1  UNL1        0.0660
     51 H           3.9590   -1.9182    0.0000 H       1  UNL1        0.0660
     52 H           6.3415    2.8726    0.0000 H       1  UNL1        0.0626
     53 H           9.1474    2.8834    0.0000 H       1  UNL1        0.0626
     54 H           6.3353    4.4925    0.0000 H       1  UNL1        0.0654
     55 H           9.1412    4.5034    0.0000 H       1  UNL1        0.0654
     56 H           8.9098    5.6556    0.0000 H       1  UNL1        0.0660
     57 H           9.1334    6.5034    0.0000 H       1  UNL1        0.0660
     58 H           8.2856    6.7270    0.0000 H       1  UNL1        0.0660
@<TRIPOS>BOND
     1     1    15    1
     2     1    16    1
     3    16     2    1
     4     2    18    1
     5    12     3    1
     6     3    42    1
     7    13     4    1
     8     4    43    1
     9    14     5    1
    10     5    44    1
    11     6    17    1
    12     6    45    1
    13     7    22   ar
    14     7    25   ar
    15     8    20    1
    16     8    28    1
    17     9    19    1
    18     9    48    1
    19    10    24    2
    20    11    33    1
    21    11    34    1
    22    12    13    1
    23    12    14    1
    24    12    35    1
    25    13    15    1
    26    13    36    1
    27    14    16    1
    28    14    37    1
    29    15    17    1
    30    15    38    1
    31    16    39    1
    32    17    40    1
    33    17    41    1
    34    18    19   ar
    35    18    20   ar
    36    19    21   ar
    37    20    23   ar
    38    21    22   ar
    39    21    24   ar
    40    22    23   ar
    41    23    46    1
    42    24    26   ar
    43    25    26   ar
    44    25    27    1
    45    26    47    1
    46    27    29   ar
    47    27    30   ar
    48    28    49    1
    49    28    50    1
    50    28    51    1
    51    29    31   ar
    52    29    52    1
    53    30    32   ar
    54    30    53    1
    55    31    33   ar
    56    31    54    1
    57    32    33   ar
    58    32    55    1
    59    34    56    1
    60    34    57    1
    61    34    58    1
