@<TRIPOS>MOLECULE
IMPHY005996
 13 12 0 0 0
SMALL
GASTEIGER

@<TRIPOS>ATOM
      1 S           7.1962   -0.5600    0.0000 S.2     1  UNL1        0.0180
      2 O           4.5981   -1.0600    0.0000 O.2     1  UNL1       -0.2681
      3 N           5.4641    0.4400    0.0000 N.am    1  UNL1       -0.1252
      4 C           2.8660   -0.0600    0.0000 C.2     1  UNL1       -0.0821
      5 C           2.0000    0.4400    0.0000 C.3     1  UNL1       -0.0464
      6 C           3.7320    0.4400    0.0000 C.2     1  UNL1       -0.0014
      7 C           4.5981   -0.0600    0.0000 C.2     1  UNL1        0.2680
      8 C           6.3301   -0.0600    0.0000 C.1     1  UNL1        0.0318
      9 H           2.8660   -0.6800    0.0000 H       1  UNL1        0.0571
     10 H           3.7320    1.0600    0.0000 H       1  UNL1        0.0667
     11 H           2.3100    0.9769    0.0000 H       1  UNL1        0.0272
     12 H           1.4631    0.7500    0.0000 H       1  UNL1        0.0272
     13 H           1.6900   -0.0969    0.0000 H       1  UNL1        0.0272
@<TRIPOS>BOND
     1     1     8    2
     2     2     7    2
     3     3     7    1
     4     3     8    2
     5     4     5    1
     6     4     6    2
     7     4     9    1
     8     5    11    1
     9     5    12    1
    10     5    13    1
    11     6     7    1
    12     6    10    1
