@<TRIPOS>MOLECULE
IMPHY004796
 77 81 0 0 0
SMALL
GASTEIGER

@<TRIPOS>ATOM
      1 O           8.0622   -2.4050    0.0000 O.3     1  UNL1       -0.3402
      2 O           6.3301   -2.4050    0.0000 O.3     1  UNL1       -0.3394
      3 O           7.1962    0.0950    0.0000 O.3     1  UNL1       -0.3338
      4 O           9.7942   -1.4050    0.0000 O.3     1  UNL1       -0.3863
      5 O           8.0622   -4.4050    0.0000 O.3     1  UNL1       -0.3841
      6 O           6.3301   -5.4050    0.0000 O.3     1  UNL1       -0.3864
      7 O           9.7942    0.5950    0.0000 O.3     1  UNL1       -0.3829
      8 O           8.0622    1.5950    0.0000 O.3     1  UNL1       -0.4532
      9 O           4.5981   -4.4050    0.0000 O.3     1  UNL1       -0.3864
     10 O           3.7320   -2.9050    0.0000 O.3     1  UNL1       -0.4621
     11 O           6.3301    3.5950    0.0000 O.2     1  UNL1       -0.4507
     12 O           6.3301    0.5950    0.0000 O.2     1  UNL1       -0.2830
     13 O           2.8660   -1.4050    0.0000 O.2     1  UNL1       -0.2512
     14 O           4.5817    0.5604    0.0000 O.3     1  UNL1       -0.5058
     15 O           2.8000    3.6192    0.0000 O.3     1  UNL1       -0.5065
     16 O          10.6603    5.0950    0.0000 O.3     1  UNL1       -0.5068
     17 C           8.0622   -1.4050    0.0000 C.3     1  UNL1        0.1161
     18 C           8.9282   -0.9050    0.0000 C.3     1  UNL1        0.1155
     19 C           7.1962   -2.9050    0.0000 C.3     1  UNL1        0.1885
     20 C           7.1962   -0.9050    0.0000 C.3     1  UNL1        0.0887
     21 C           7.1962   -3.9050    0.0000 C.3     1  UNL1        0.1341
     22 C           6.3301   -4.4050    0.0000 C.3     1  UNL1        0.1141
     23 C           8.9282    0.0950    0.0000 C.3     1  UNL1        0.1454
     24 C           5.4641   -3.9050    0.0000 C.3     1  UNL1        0.1129
     25 C           5.4641   -2.9050    0.0000 C.3     1  UNL1        0.1240
     26 C           8.0622    0.5950    0.0000 C.3     1  UNL1        0.2311
     27 C           6.3301   -1.4050    0.0000 C.3     1  UNL1       -0.0360
     28 C           4.5981   -2.4050    0.0000 C.3     1  UNL1        0.1211
     29 C           7.1962    2.0950    0.0000 C.ar    1  UNL1        0.2138
     30 C           7.1962    3.0950    0.0000 C.ar    1  UNL1        0.1809
     31 C           6.3301    1.5950    0.0000 C.ar    1  UNL1        0.2382
     32 C           2.8660   -2.4050    0.0000 C.2     1  UNL1        0.3040
     33 C           5.4641    2.0950    0.0000 C.ar    1  UNL1        0.1092
     34 C           8.0622    3.5950    0.0000 C.ar    1  UNL1        0.0213
     35 C           5.4641    3.0950    0.0000 C.ar    1  UNL1        0.1465
     36 C           2.0000   -2.9050    0.0000 C.3     1  UNL1        0.0332
     37 C           4.5702    1.5603    0.0000 C.ar    1  UNL1        0.1348
     38 C           4.5702    3.6297    0.0000 C.ar    1  UNL1        0.0231
     39 C           8.0622    4.5950    0.0000 C.ar    1  UNL1       -0.0475
     40 C           8.9282    3.0950    0.0000 C.ar    1  UNL1       -0.0475
     41 C           3.6641    2.0742    0.0000 C.ar    1  UNL1        0.0223
     42 C           3.6641    3.1158    0.0000 C.ar    1  UNL1        0.1239
     43 C           8.9282    5.0950    0.0000 C.ar    1  UNL1       -0.0195
     44 C           9.7942    3.5950    0.0000 C.ar    1  UNL1       -0.0195
     45 C           9.7942    4.5950    0.0000 C.ar    1  UNL1        0.1169
     46 H           7.5252   -1.7150    0.0000 H       1  UNL1        0.0650
     47 H           9.4651   -0.5950    0.0000 H       1  UNL1        0.0648
     48 H           7.7331   -3.2150    0.0000 H       1  UNL1        0.0938
     49 H           6.6592   -0.5950    0.0000 H       1  UNL1        0.0621
     50 H           7.1962   -4.5250    0.0000 H       1  UNL1        0.0671
     51 H           5.7932   -4.7150    0.0000 H       1  UNL1        0.0648
     52 H           8.9282    0.7150    0.0000 H       1  UNL1        0.0683
     53 H           4.9272   -3.5950    0.0000 H       1  UNL1        0.0647
     54 H           5.4641   -2.2850    0.0000 H       1  UNL1        0.0658
     55 H           7.5252    0.9050    0.0000 H       1  UNL1        0.1084
     56 H           6.0201   -0.8681    0.0000 H       1  UNL1        0.0255
     57 H           5.7932   -1.7150    0.0000 H       1  UNL1        0.0255
     58 H           6.6401   -1.9419    0.0000 H       1  UNL1        0.0255
     59 H           4.9966   -1.9300    0.0000 H       1  UNL1        0.0724
     60 H           4.1996   -1.9300    0.0000 H       1  UNL1        0.0724
     61 H          10.3312   -1.0950    0.0000 H       1  UNL1        0.2100
     62 H           8.5991   -4.0950    0.0000 H       1  UNL1        0.2101
     63 H           6.8671   -5.7150    0.0000 H       1  UNL1        0.2100
     64 H           9.7942    1.2150    0.0000 H       1  UNL1        0.2102
     65 H           4.5981   -5.0250    0.0000 H       1  UNL1        0.2100
     66 H           1.6900   -2.3681    0.0000 H       1  UNL1        0.0342
     67 H           1.4631   -3.2150    0.0000 H       1  UNL1        0.0342
     68 H           2.3100   -3.4419    0.0000 H       1  UNL1        0.0342
     69 H           4.5773    4.2496    0.0000 H       1  UNL1        0.0691
     70 H           7.5252    4.9050    0.0000 H       1  UNL1        0.0626
     71 H           8.9282    2.4750    0.0000 H       1  UNL1        0.0626
     72 H           3.1284    1.7621    0.0000 H       1  UNL1        0.0691
     73 H           8.9282    5.7150    0.0000 H       1  UNL1        0.0654
     74 H          10.3312    3.2850    0.0000 H       1  UNL1        0.0654
     75 H           4.0484    0.2442    0.0000 H       1  UNL1        0.2922
     76 H           2.2619    3.3112    0.0000 H       1  UNL1        0.2921
     77 H          10.6603    5.7150    0.0000 H       1  UNL1        0.2921
@<TRIPOS>BOND
     1    17     1    1
     2    19     1    1
     3     2    19    1
     4     2    25    1
     5     3    20    1
     6     3    26    1
     7     4    18    1
     8     4    61    1
     9     5    21    1
    10     5    62    1
    11     6    22    1
    12     6    63    1
    13    23     7    1
    14     7    64    1
    15    26     8    1
    16     8    29    1
    17    24     9    1
    18     9    65    1
    19    10    28    1
    20    10    32    1
    21    11    30   ar
    22    11    35   ar
    23    12    31    2
    24    13    32    2
    25    14    37    1
    26    14    75    1
    27    15    42    1
    28    15    76    1
    29    16    45    1
    30    16    77    1
    31    17    18    1
    32    17    20    1
    33    17    46    1
    34    18    23    1
    35    18    47    1
    36    19    21    1
    37    19    48    1
    38    20    27    1
    39    20    49    1
    40    21    22    1
    41    21    50    1
    42    22    24    1
    43    22    51    1
    44    23    26    1
    45    23    52    1
    46    24    25    1
    47    24    53    1
    48    25    28    1
    49    25    54    1
    50    26    55    1
    51    27    56    1
    52    27    57    1
    53    27    58    1
    54    28    59    1
    55    28    60    1
    56    29    30   ar
    57    29    31   ar
    58    30    34    1
    59    31    33   ar
    60    32    36    1
    61    33    35   ar
    62    33    37   ar
    63    34    39   ar
    64    34    40   ar
    65    35    38   ar
    66    36    66    1
    67    36    67    1
    68    36    68    1
    69    37    41   ar
    70    38    42   ar
    71    38    69    1
    72    39    43   ar
    73    39    70    1
    74    40    44   ar
    75    40    71    1
    76    41    42   ar
    77    41    72    1
    78    43    45   ar
    79    43    73    1
    80    44    45   ar
    81    44    74    1
