@<TRIPOS>MOLECULE
IMPHY004556
 25 24 0 0 0
SMALL
GASTEIGER

@<TRIPOS>ATOM
      1 O           2.0000    0.1270    0.0000 O.2     1  UNL1       -0.3005
      2 C           3.7320    0.1270    0.0000 C.3     1  UNL1        0.0204
      3 C           4.5981    0.6270    0.0000 C.3     1  UNL1       -0.0414
      4 C           5.4641    0.1270    0.0000 C.3     1  UNL1       -0.0524
      5 C           3.2320    0.9930    0.0000 C.3     1  UNL1       -0.0534
      6 C           4.2320   -0.7390    0.0000 C.3     1  UNL1       -0.0534
      7 C           6.3301    0.6270    0.0000 C.3     1  UNL1       -0.0559
      8 C           2.8660   -0.3730    0.0000 C.2     1  UNL1        0.1259
      9 C           7.1962    0.1270    0.0000 C.3     1  UNL1       -0.0653
     10 H           4.9966    1.1019    0.0000 H       1  UNL1        0.0274
     11 H           4.1996    1.1019    0.0000 H       1  UNL1        0.0274
     12 H           5.0656   -0.3480    0.0000 H       1  UNL1        0.0265
     13 H           5.8626   -0.3480    0.0000 H       1  UNL1        0.0265
     14 H           3.7690    1.3030    0.0000 H       1  UNL1        0.0239
     15 H           2.9220    1.5300    0.0000 H       1  UNL1        0.0239
     16 H           2.6951    0.6830    0.0000 H       1  UNL1        0.0239
     17 H           3.6951   -1.0490    0.0000 H       1  UNL1        0.0239
     18 H           4.5420   -1.2760    0.0000 H       1  UNL1        0.0239
     19 H           4.7690   -0.4290    0.0000 H       1  UNL1        0.0239
     20 H           6.7287    1.1019    0.0000 H       1  UNL1        0.0263
     21 H           5.9316    1.1019    0.0000 H       1  UNL1        0.0263
     22 H           2.8660   -0.9930    0.0000 H       1  UNL1        0.1032
     23 H           6.8862   -0.4099    0.0000 H       1  UNL1        0.0230
     24 H           7.7331   -0.1830    0.0000 H       1  UNL1        0.0230
     25 H           7.5062    0.6639    0.0000 H       1  UNL1        0.0230
@<TRIPOS>BOND
     1     1     8    2
     2     2     3    1
     3     2     5    1
     4     2     6    1
     5     2     8    1
     6     3     4    1
     7     3    10    1
     8     3    11    1
     9     4     7    1
    10     4    12    1
    11     4    13    1
    12     5    14    1
    13     5    15    1
    14     5    16    1
    15     6    17    1
    16     6    18    1
    17     6    19    1
    18     7     9    1
    19     7    20    1
    20     7    21    1
    21     8    22    1
    22     9    23    1
    23     9    24    1
    24     9    25    1
