@<TRIPOS>MOLECULE
IMPHY002796
 54 57 0 0 0
SMALL
GASTEIGER

@<TRIPOS>ATOM
      1 O           7.4714   -0.0132    0.0000 O.3     1  UNL1       -0.3691
      2 O           7.7820    2.5468    0.0000 O.3     1  UNL1       -0.3889
      3 C           3.8831   -0.2153    0.0000 C.3     1  UNL1       -0.0219
      4 C           3.8751   -1.2569    0.0000 C.3     1  UNL1       -0.0265
      5 C           4.7931    0.2915    0.0000 C.3     1  UNL1       -0.0118
      6 C           2.9396   -1.8067    0.0000 C.3     1  UNL1       -0.0313
      7 C           6.5251    1.2915    0.0000 C.3     1  UNL1        0.0261
      8 C           5.6591   -0.2085    0.0000 C.2     1  UNL1       -0.0409
      9 C           2.9562    0.3487    0.0000 C.3     1  UNL1       -0.0468
     10 C           6.5251    0.2915    0.0000 C.3     1  UNL1        0.0879
     11 C           4.7931    1.2915    0.0000 C.3     1  UNL1       -0.0453
     12 C           4.7771   -1.7778    0.0000 C.3     1  UNL1       -0.0306
     13 C           5.6591    1.7915    0.0000 C.3     1  UNL1       -0.0420
     14 C           2.0000   -1.2642    0.0000 C.3     1  UNL1       -0.0476
     15 C           2.0084   -0.1792    0.0000 C.3     1  UNL1       -0.0520
     16 C           3.8908    0.7846    0.0000 C.3     1  UNL1       -0.0587
     17 C           5.6752   -1.2500    0.0000 C.2     1  UNL1       -0.0817
     18 C           7.4714    1.5962    0.0000 C.3     1  UNL1        0.0865
     19 C           2.4430   -2.6746    0.0000 C.3     1  UNL1       -0.0595
     20 C           3.4430   -2.6708    0.0000 C.3     1  UNL1       -0.0595
     21 C           6.5251    2.2915    0.0000 C.3     1  UNL1       -0.0544
     22 C           8.0550    0.7915    0.0000 C.3     1  UNL1        0.0750
     23 H           3.8783   -2.1069    0.0000 H       1  UNL1        0.0314
     24 H           5.5292    0.7165    0.0000 H       1  UNL1        0.0352
     25 H           3.3645    0.8154    0.0000 H       1  UNL1        0.0271
     26 H           2.5663    0.8308    0.0000 H       1  UNL1        0.0271
     27 H           6.6151   -0.5537    0.0000 H       1  UNL1        0.0649
     28 H           4.5810    1.8741    0.0000 H       1  UNL1        0.0271
     29 H           4.1825    1.1838    0.0000 H       1  UNL1        0.0271
     30 H           4.3798   -2.2537    0.0000 H       1  UNL1        0.0310
     31 H           5.1781   -2.2506    0.0000 H       1  UNL1        0.0310
     32 H           6.0576    2.2664    0.0000 H       1  UNL1        0.0272
     33 H           5.2606    2.2664    0.0000 H       1  UNL1        0.0272
     34 H           1.3900   -1.1534    0.0000 H       1  UNL1        0.0271
     35 H           1.7864   -1.8462    0.0000 H       1  UNL1        0.0271
     36 H           1.8038    0.4061    0.0000 H       1  UNL1        0.0266
     37 H           1.3967   -0.2806    0.0000 H       1  UNL1        0.0266
     38 H           4.5108    0.7798    0.0000 H       1  UNL1        0.0235
     39 H           3.8956    1.4046    0.0000 H       1  UNL1        0.0235
     40 H           3.2708    0.7894    0.0000 H       1  UNL1        0.0235
     41 H           6.2157   -1.5538    0.0000 H       1  UNL1        0.0573
     42 H           8.0838    1.6924    0.0000 H       1  UNL1        0.0623
     43 H           2.9072   -2.9828    0.0000 H       1  UNL1        0.0235
     44 H           3.7550   -3.2065    0.0000 H       1  UNL1        0.0235
     45 H           1.9048   -2.3667    0.0000 H       1  UNL1        0.0235
     46 H           2.1350   -3.2127    0.0000 H       1  UNL1        0.0235
     47 H           3.9787   -2.3587    0.0000 H       1  UNL1        0.0235
     48 H           2.9811   -2.9825    0.0000 H       1  UNL1        0.0235
     49 H           7.1451    2.2915    0.0000 H       1  UNL1        0.0237
     50 H           6.5251    2.9115    0.0000 H       1  UNL1        0.0237
     51 H           5.9051    2.2915    0.0000 H       1  UNL1        0.0237
     52 H           8.5158    0.3768    0.0000 H       1  UNL1        0.0586
     53 H           8.5158    1.2062    0.0000 H       1  UNL1        0.0586
     54 H           8.3887    2.6746    0.0000 H       1  UNL1        0.2099
@<TRIPOS>BOND
     1     1    10    1
     2     1    22    1
     3    18     2    1
     4     2    54    1
     5     3     4    1
     6     3     5    1
     7     3     9    1
     8     3    16    1
     9     4     6    1
    10     4    12    1
    11     4    23    1
    12     5     8    1
    13     5    11    1
    14     5    24    1
    15     6    14    1
    16     6    19    1
    17     6    20    1
    18     7    10    1
    19     7    13    1
    20     7    18    1
    21     7    21    1
    22     8    10    1
    23     8    17    2
    24     9    15    1
    25     9    25    1
    26     9    26    1
    27    10    27    1
    28    11    13    1
    29    11    28    1
    30    11    29    1
    31    12    17    1
    32    12    30    1
    33    12    31    1
    34    13    32    1
    35    13    33    1
    36    14    15    1
    37    14    34    1
    38    14    35    1
    39    15    36    1
    40    15    37    1
    41    16    38    1
    42    16    39    1
    43    16    40    1
    44    17    41    1
    45    18    22    1
    46    18    42    1
    47    19    45    1
    48    19    46    1
    49    19    48    1
    50    20    43    1
    51    20    44    1
    52    20    47    1
    53    21    49    1
    54    21    50    1
    55    21    51    1
    56    22    52    1
    57    22    53    1
