@<TRIPOS>MOLECULE
IMPHY008305
 52 51 0 0 0
SMALL
GASTEIGER

@<TRIPOS>ATOM
      1 O           2.8660   -0.7500    0.0000 O.2     1  UNL1       -0.2977
      2 C           9.7942    0.2500    0.0000 C.3     1  UNL1       -0.0531
      3 C           8.9282    0.7500    0.0000 C.3     1  UNL1       -0.0531
      4 C          10.6603    0.7500    0.0000 C.3     1  UNL1       -0.0531
      5 C           8.0622    0.2500    0.0000 C.3     1  UNL1       -0.0531
      6 C          11.5263    0.2500    0.0000 C.3     1  UNL1       -0.0531
      7 C           7.1962    0.7500    0.0000 C.3     1  UNL1       -0.0531
      8 C          12.3923    0.7500    0.0000 C.3     1  UNL1       -0.0531
      9 C           6.3301    0.2500    0.0000 C.3     1  UNL1       -0.0530
     10 C          13.2583    0.2500    0.0000 C.3     1  UNL1       -0.0531
     11 C           5.4641    0.7500    0.0000 C.3     1  UNL1       -0.0527
     12 C          14.1244    0.7500    0.0000 C.3     1  UNL1       -0.0533
     13 C           4.5981    0.2500    0.0000 C.3     1  UNL1       -0.0464
     14 C          14.9904    0.2500    0.0000 C.3     1  UNL1       -0.0559
     15 C           3.7320    0.7500    0.0000 C.3     1  UNL1        0.0055
     16 C          15.8564    0.7500    0.0000 C.3     1  UNL1       -0.0653
     17 C           2.8660    0.2500    0.0000 C.2     1  UNL1        0.1303
     18 C           2.0000    0.7500    0.0000 C.3     1  UNL1       -0.0061
     19 H           9.3957   -0.2249    0.0000 H       1  UNL1        0.0265
     20 H          10.1928   -0.2249    0.0000 H       1  UNL1        0.0265
     21 H           9.3267    1.2250    0.0000 H       1  UNL1        0.0265
     22 H           8.5297    1.2250    0.0000 H       1  UNL1        0.0265
     23 H          11.0588    1.2250    0.0000 H       1  UNL1        0.0265
     24 H          10.2617    1.2250    0.0000 H       1  UNL1        0.0265
     25 H           7.6636   -0.2249    0.0000 H       1  UNL1        0.0265
     26 H           8.4607   -0.2249    0.0000 H       1  UNL1        0.0265
     27 H          11.1278   -0.2249    0.0000 H       1  UNL1        0.0265
     28 H          11.9248   -0.2249    0.0000 H       1  UNL1        0.0265
     29 H           7.5947    1.2250    0.0000 H       1  UNL1        0.0265
     30 H           6.7976    1.2250    0.0000 H       1  UNL1        0.0265
     31 H          12.7908    1.2250    0.0000 H       1  UNL1        0.0265
     32 H          11.9938    1.2250    0.0000 H       1  UNL1        0.0265
     33 H           5.9316   -0.2249    0.0000 H       1  UNL1        0.0265
     34 H           6.7287   -0.2249    0.0000 H       1  UNL1        0.0265
     35 H          12.8598   -0.2249    0.0000 H       1  UNL1        0.0265
     36 H          13.6569   -0.2249    0.0000 H       1  UNL1        0.0265
     37 H           5.8626    1.2250    0.0000 H       1  UNL1        0.0265
     38 H           5.0656    1.2250    0.0000 H       1  UNL1        0.0265
     39 H          14.5229    1.2250    0.0000 H       1  UNL1        0.0265
     40 H          13.7258    1.2250    0.0000 H       1  UNL1        0.0265
     41 H           4.1996   -0.2249    0.0000 H       1  UNL1        0.0269
     42 H           4.9966   -0.2249    0.0000 H       1  UNL1        0.0269
     43 H          14.5919   -0.2249    0.0000 H       1  UNL1        0.0263
     44 H          15.3889   -0.2249    0.0000 H       1  UNL1        0.0263
     45 H           4.1306    1.2250    0.0000 H       1  UNL1        0.0341
     46 H           3.3335    1.2250    0.0000 H       1  UNL1        0.0341
     47 H          16.1664    0.2131    0.0000 H       1  UNL1        0.0230
     48 H          16.3933    1.0600    0.0000 H       1  UNL1        0.0230
     49 H          15.5464    1.2869    0.0000 H       1  UNL1        0.0230
     50 H           2.3100    1.2869    0.0000 H       1  UNL1        0.0306
     51 H           1.4631    1.0600    0.0000 H       1  UNL1        0.0306
     52 H           1.6900    0.2131    0.0000 H       1  UNL1        0.0306
@<TRIPOS>BOND
     1     1    17    2
     2     2     3    1
     3     2     4    1
     4     2    19    1
     5     2    20    1
     6     3     5    1
     7     3    21    1
     8     3    22    1
     9     4     6    1
    10     4    23    1
    11     4    24    1
    12     5     7    1
    13     5    25    1
    14     5    26    1
    15     6     8    1
    16     6    27    1
    17     6    28    1
    18     7     9    1
    19     7    29    1
    20     7    30    1
    21     8    10    1
    22     8    31    1
    23     8    32    1
    24     9    11    1
    25     9    33    1
    26     9    34    1
    27    10    12    1
    28    10    35    1
    29    10    36    1
    30    11    13    1
    31    11    37    1
    32    11    38    1
    33    12    14    1
    34    12    39    1
    35    12    40    1
    36    13    15    1
    37    13    41    1
    38    13    42    1
    39    14    16    1
    40    14    43    1
    41    14    44    1
    42    15    17    1
    43    15    45    1
    44    15    46    1
    45    16    47    1
    46    16    48    1
    47    16    49    1
    48    17    18    1
    49    18    50    1
    50    18    51    1
    51    18    52    1
