@<TRIPOS>MOLECULE
IMPHY014413
 68 73 0 0 0
SMALL
GASTEIGER

@<TRIPOS>ATOM
      1 O           7.1256    0.3132    0.0000 O.3     1  UNL1       -0.4535
      2 O           8.8958   -0.6837    0.0000 O.3     1  UNL1       -0.4541
      3 O           6.2596    1.8132    0.0000 O.2     1  UNL1       -0.2449
      4 O           2.6079   -1.0251    0.0000 O.3     1  UNL1       -0.4526
      5 O           2.6079    0.6514    0.0000 O.3     1  UNL1       -0.4526
      6 O           9.7791   -2.1736    0.0000 O.2     1  UNL1       -0.2449
      7 O          12.3249    2.3562    0.0000 O.3     1  UNL1       -0.4614
      8 O          10.5930    2.3361    0.0000 O.2     1  UNL1       -0.2449
      9 N           5.4705   -2.9173    0.0000 N.3     1  UNL1       -0.3014
     10 N          12.3596   -0.6436    0.0000 N.ar    1  UNL1       -0.2554
     11 C           6.2435   -2.2284    0.0000 C.3     1  UNL1        0.0234
     12 C           7.1415   -2.7561    0.0000 C.3     1  UNL1       -0.0201
     13 C           6.2596   -1.1868    0.0000 C.3     1  UNL1        0.0415
     14 C           7.1256   -0.6868    0.0000 C.3     1  UNL1        0.1482
     15 C           8.0436   -2.2353    0.0000 C.3     1  UNL1       -0.0078
     16 C           6.9158   -3.7667    0.0000 C.3     1  UNL1       -0.0358
     17 C           8.0356   -1.1937    0.0000 C.3     1  UNL1        0.1410
     18 C           5.8851   -3.8661    0.0000 C.3     1  UNL1       -0.0008
     19 C           5.3935   -0.6868    0.0000 C.ar    1  UNL1       -0.0215
     20 C           4.4936   -2.7035    0.0000 C.3     1  UNL1       -0.0124
     21 C           5.3935    0.3132    0.0000 C.ar    1  UNL1        0.0663
     22 C           6.2596    0.8132    0.0000 C.2     1  UNL1        0.3400
     23 C           4.4996   -1.2215    0.0000 C.ar    1  UNL1       -0.0117
     24 C           4.4996    0.8478    0.0000 C.ar    1  UNL1       -0.0019
     25 C           3.5935   -0.7077    0.0000 C.ar    1  UNL1        0.1665
     26 C           3.5935    0.3340    0.0000 C.ar    1  UNL1        0.1670
     27 C           9.7675   -1.1737    0.0000 C.2     1  UNL1        0.3413
     28 C          10.6277   -0.6637    0.0000 C.ar    1  UNL1        0.0807
     29 C           2.0000   -0.1868    0.0000 C.3     1  UNL1        0.2332
     30 C          11.4994   -1.1536    0.0000 C.ar    1  UNL1        0.0525
     31 C          10.6161    0.3363    0.0000 C.ar    1  UNL1       -0.0303
     32 C          11.4763    0.8462    0.0000 C.ar    1  UNL1        0.0807
     33 C          11.5110   -2.1536    0.0000 C.3     1  UNL1       -0.0215
     34 C          12.3481    0.3563    0.0000 C.ar    1  UNL1        0.0525
     35 C          11.4648    1.8462    0.0000 C.2     1  UNL1        0.3409
     36 C          13.2083    0.8663    0.0000 C.3     1  UNL1       -0.0215
     37 C          12.3134    3.3561    0.0000 C.3     1  UNL1        0.0900
     38 C          13.1736    3.8661    0.0000 C.3     1  UNL1       -0.0306
     39 H           5.4706   -1.8747    0.0000 H       1  UNL1        0.0472
     40 H           7.8266   -3.2593    0.0000 H       1  UNL1        0.0318
     41 H           5.5202   -1.6062    0.0000 H       1  UNL1        0.0402
     42 H           7.8584   -0.2562    0.0000 H       1  UNL1        0.0778
     43 H           8.2572   -2.8173    0.0000 H       1  UNL1        0.0305
     44 H           8.6536   -2.1245    0.0000 H       1  UNL1        0.0305
     45 H           6.9101   -4.3866    0.0000 H       1  UNL1        0.0281
     46 H           7.5318   -3.8375    0.0000 H       1  UNL1        0.0281
     47 H           8.5755   -1.4985    0.0000 H       1  UNL1        0.0772
     48 H           5.2941   -4.0533    0.0000 H       1  UNL1        0.0427
     49 H           6.0092   -4.4735    0.0000 H       1  UNL1        0.0427
     50 H           4.6261   -2.0978    0.0000 H       1  UNL1        0.0391
     51 H           3.8879   -2.5710    0.0000 H       1  UNL1        0.0391
     52 H           4.3610   -3.3092    0.0000 H       1  UNL1        0.0391
     53 H           4.5068   -1.8415    0.0000 H       1  UNL1        0.0658
     54 H           4.5068    1.4678    0.0000 H       1  UNL1        0.0663
     55 H           1.5391    0.2279    0.0000 H       1  UNL1        0.1166
     56 H           1.5391   -0.6016    0.0000 H       1  UNL1        0.1166
     57 H          10.0757    0.6400    0.0000 H       1  UNL1        0.0635
     58 H          10.8911   -2.1607    0.0000 H       1  UNL1        0.0293
     59 H          11.5182   -2.7735    0.0000 H       1  UNL1        0.0293
     60 H          12.1310   -2.1464    0.0000 H       1  UNL1        0.0293
     61 H          13.5244    0.3330    0.0000 H       1  UNL1        0.0293
     62 H          13.7416    1.1824    0.0000 H       1  UNL1        0.0293
     63 H          12.8921    1.3996    0.0000 H       1  UNL1        0.0293
     64 H          12.0946    3.9362    0.0000 H       1  UNL1        0.0695
     65 H          11.7041    3.2414    0.0000 H       1  UNL1        0.0695
     66 H          13.4898    3.3328    0.0000 H       1  UNL1        0.0262
     67 H          13.7069    4.1822    0.0000 H       1  UNL1        0.0262
     68 H          12.8574    4.3994    0.0000 H       1  UNL1        0.0262
@<TRIPOS>BOND
     1     1    14    1
     2     1    22    1
     3    17     2    1
     4     2    27    1
     5     3    22    2
     6     4    25    1
     7     4    29    1
     8     5    26    1
     9     5    29    1
    10     6    27    2
    11     7    35    1
    12     7    37    1
    13     8    35    2
    14     9    11    1
    15     9    18    1
    16     9    20    1
    17    10    30   ar
    18    10    34   ar
    19    11    12    1
    20    11    13    1
    21    11    39    1
    22    12    15    1
    23    12    16    1
    24    12    40    1
    25    13    14    1
    26    13    19    1
    27    13    41    1
    28    14    17    1
    29    14    42    1
    30    15    17    1
    31    15    43    1
    32    15    44    1
    33    16    18    1
    34    16    45    1
    35    16    46    1
    36    17    47    1
    37    18    48    1
    38    18    49    1
    39    19    21   ar
    40    19    23   ar
    41    20    50    1
    42    20    51    1
    43    20    52    1
    44    21    22    1
    45    21    24   ar
    46    23    25   ar
    47    23    53    1
    48    24    26   ar
    49    24    54    1
    50    25    26   ar
    51    27    28    1
    52    28    30   ar
    53    28    31   ar
    54    29    55    1
    55    29    56    1
    56    30    33    1
    57    31    32   ar
    58    31    57    1
    59    32    34   ar
    60    32    35    1
    61    33    58    1
    62    33    59    1
    63    33    60    1
    64    34    36    1
    65    36    61    1
    66    36    62    1
    67    36    63    1
    68    37    38    1
    69    37    64    1
    70    37    65    1
    71    38    66    1
    72    38    67    1
    73    38    68    1
