@<TRIPOS>MOLECULE
IMPHY010815
 39 41 0 0 0
SMALL
GASTEIGER

@<TRIPOS>ATOM
      1 C           3.7320   -0.0492    0.0000 C.3     1  UNL1       -0.0114
      2 C           2.8660    0.4508    0.0000 C.3     1  UNL1       -0.0129
      3 C           4.5981    0.4508    0.0000 C.3     1  UNL1       -0.0219
      4 C           2.8658   -0.5496    0.0000 C.3     1  UNL1       -0.0388
      5 C           3.7160   -1.0907    0.0000 C.3     1  UNL1       -0.0282
      6 C           5.5081   -0.0560    0.0000 C.3     1  UNL1       -0.0468
      7 C           4.6140   -1.6184    0.0000 C.3     1  UNL1       -0.0473
      8 C           4.5981    1.4508    0.0000 C.3     1  UNL1       -0.0285
      9 C           2.8660    1.4508    0.0000 C.2     1  UNL1       -0.0729
     10 C           5.5161   -1.0976    0.0000 C.3     1  UNL1       -0.0520
     11 C           5.4641    0.9508    0.0000 C.3     1  UNL1       -0.0587
     12 C           3.2060   -1.9508    0.0000 C.3     1  UNL1       -0.0593
     13 C           2.7724   -1.4218    0.0000 C.3     1  UNL1       -0.0593
     14 C           3.7320    1.9508    0.0000 C.2     1  UNL1       -0.0842
     15 C           2.0000    1.9508    0.0000 C.3     1  UNL1       -0.0435
     16 H           2.0160    0.4510    0.0000 H       1  UNL1        0.0351
     17 H           2.2552   -0.6572    0.0000 H       1  UNL1        0.0277
     18 H           3.0779   -1.1322    0.0000 H       1  UNL1        0.0277
     19 H           6.1197   -0.1574    0.0000 H       1  UNL1        0.0271
     20 H           5.7126    0.5293    0.0000 H       1  UNL1        0.0271
     21 H           4.2131   -2.0913    0.0000 H       1  UNL1        0.0271
     22 H           5.0113   -2.0944    0.0000 H       1  UNL1        0.0271
     23 H           5.2087    1.3432    0.0000 H       1  UNL1        0.0313
     24 H           4.8101    2.0335    0.0000 H       1  UNL1        0.0313
     25 H           5.7297   -1.6797    0.0000 H       1  UNL1        0.0266
     26 H           6.1261   -0.9868    0.0000 H       1  UNL1        0.0266
     27 H           5.7741    0.4139    0.0000 H       1  UNL1        0.0235
     28 H           6.0010    1.2608    0.0000 H       1  UNL1        0.0235
     29 H           5.1541    1.4878    0.0000 H       1  UNL1        0.0235
     30 H           2.6727   -1.6347    0.0000 H       1  UNL1        0.0235
     31 H           2.8898   -2.4842    0.0000 H       1  UNL1        0.0235
     32 H           3.7393   -2.2670    0.0000 H       1  UNL1        0.0235
     33 H           2.5671   -0.8368    0.0000 H       1  UNL1        0.0235
     34 H           2.1874   -1.6271    0.0000 H       1  UNL1        0.0235
     35 H           2.9777   -2.0068    0.0000 H       1  UNL1        0.0235
     36 H           3.7320    2.5708    0.0000 H       1  UNL1        0.0572
     37 H           2.3100    2.4878    0.0000 H       1  UNL1        0.0274
     38 H           1.4631    2.2608    0.0000 H       1  UNL1        0.0274
     39 H           1.6900    1.4139    0.0000 H       1  UNL1        0.0274
@<TRIPOS>BOND
     1     1     2    1
     2     1     3    1
     3     1     4    1
     4     1     5    1
     5     2     4    1
     6     2     9    1
     7     2    16    1
     8     3     6    1
     9     3     8    1
    10     3    11    1
    11     4    17    1
    12     4    18    1
    13     5     7    1
    14     5    12    1
    15     5    13    1
    16     6    10    1
    17     6    19    1
    18     6    20    1
    19     7    10    1
    20     7    21    1
    21     7    22    1
    22     8    14    1
    23     8    23    1
    24     8    24    1
    25     9    14    2
    26     9    15    1
    27    10    25    1
    28    10    26    1
    29    11    27    1
    30    11    28    1
    31    11    29    1
    32    12    30    1
    33    12    31    1
    34    12    32    1
    35    13    33    1
    36    13    34    1
    37    13    35    1
    38    14    36    1
    39    15    37    1
    40    15    38    1
    41    15    39    1
