@<TRIPOS>MOLECULE
IMPHY014313
 48 47 0 0 0
SMALL
GASTEIGER

@<TRIPOS>ATOM
      1 O           2.5369    2.6900    0.0000 O.3     1  UNL1       -0.4806
      2 O           3.4030    1.1900    0.0000 O.2     1  UNL1       -0.2510
      3 C           6.8671    2.1900    0.0000 C.3     1  UNL1       -0.0528
      4 C           6.0010    2.6900    0.0000 C.3     1  UNL1       -0.0525
      5 C           7.7331    2.6900    0.0000 C.3     1  UNL1       -0.0496
      6 C           5.1350    2.1900    0.0000 C.3     1  UNL1       -0.0430
      7 C           8.5991    2.1900    0.0000 C.3     1  UNL1       -0.0345
      8 C           4.2690    2.6900    0.0000 C.3     1  UNL1        0.0448
      9 C           9.4651    2.6900    0.0000 C.2     1  UNL1       -0.0840
     10 C           3.4030    2.1900    0.0000 C.2     1  UNL1        0.3047
     11 C          10.3312    2.1900    0.0000 C.2     1  UNL1       -0.0657
     12 C          14.6613   -2.3100    0.0000 C.3     1  UNL1       -0.0525
     13 C          13.7953   -1.8100    0.0000 C.3     1  UNL1       -0.0347
     14 C          10.3312    1.1900    0.0000 C.2     1  UNL1       -0.0621
     15 C          14.6613   -3.3100    0.0000 C.3     1  UNL1       -0.0650
     16 C          13.7953   -0.8100    0.0000 C.2     1  UNL1       -0.0840
     17 C          11.1972    0.6900    0.0000 C.2     1  UNL1       -0.0618
     18 C          12.9292   -0.3100    0.0000 C.2     1  UNL1       -0.0657
     19 C          12.0632    1.1900    0.0000 C.2     1  UNL1       -0.0618
     20 C          12.9292    0.6900    0.0000 C.2     1  UNL1       -0.0621
     21 H           6.4685    1.7150    0.0000 H       1  UNL1        0.0265
     22 H           7.2656    1.7150    0.0000 H       1  UNL1        0.0265
     23 H           6.3996    3.1650    0.0000 H       1  UNL1        0.0265
     24 H           5.6025    3.1650    0.0000 H       1  UNL1        0.0265
     25 H           8.1316    3.1650    0.0000 H       1  UNL1        0.0268
     26 H           7.3346    3.1650    0.0000 H       1  UNL1        0.0268
     27 H           4.7365    1.7150    0.0000 H       1  UNL1        0.0270
     28 H           5.5335    1.7150    0.0000 H       1  UNL1        0.0270
     29 H           8.2006    1.7150    0.0000 H       1  UNL1        0.0307
     30 H           8.9976    1.7150    0.0000 H       1  UNL1        0.0307
     31 H           4.6675    3.1650    0.0000 H       1  UNL1        0.0377
     32 H           3.8705    3.1650    0.0000 H       1  UNL1        0.0377
     33 H           9.4651    3.3100    0.0000 H       1  UNL1        0.0572
     34 H          10.8681    2.5000    0.0000 H       1  UNL1        0.0614
     35 H          15.2719   -2.4177    0.0000 H       1  UNL1        0.0266
     36 H          14.8733   -1.7274    0.0000 H       1  UNL1        0.0266
     37 H          13.1847   -1.7023    0.0000 H       1  UNL1        0.0307
     38 H          13.5832   -2.3926    0.0000 H       1  UNL1        0.0307
     39 H           9.7942    0.8800    0.0000 H       1  UNL1        0.0617
     40 H           2.0000    2.3800    0.0000 H       1  UNL1        0.2951
     41 H          14.0413   -3.3100    0.0000 H       1  UNL1        0.0230
     42 H          14.6613   -3.9300    0.0000 H       1  UNL1        0.0230
     43 H          15.2813   -3.3100    0.0000 H       1  UNL1        0.0230
     44 H          14.3322   -0.5000    0.0000 H       1  UNL1        0.0572
     45 H          11.1972    0.0700    0.0000 H       1  UNL1        0.0618
     46 H          12.3923   -0.6200    0.0000 H       1  UNL1        0.0614
     47 H          12.0632    1.8100    0.0000 H       1  UNL1        0.0618
     48 H          13.4662    1.0000    0.0000 H       1  UNL1        0.0617
@<TRIPOS>BOND
     1     1    10    1
     2     1    40    1
     3     2    10    2
     4     3     4    1
     5     3     5    1
     6     3    21    1
     7     3    22    1
     8     4     6    1
     9     4    23    1
    10     4    24    1
    11     5     7    1
    12     5    25    1
    13     5    26    1
    14     6     8    1
    15     6    27    1
    16     6    28    1
    17     7     9    1
    18     7    29    1
    19     7    30    1
    20     8    10    1
    21     8    31    1
    22     8    32    1
    23     9    11    2
    24     9    33    1
    25    11    14    1
    26    11    34    1
    27    12    13    1
    28    12    15    1
    29    12    35    1
    30    12    36    1
    31    13    16    1
    32    13    37    1
    33    13    38    1
    34    14    17    2
    35    14    39    1
    36    15    41    1
    37    15    42    1
    38    15    43    1
    39    16    18    2
    40    16    44    1
    41    17    19    1
    42    17    45    1
    43    18    20    1
    44    18    46    1
    45    19    20    2
    46    19    47    1
    47    20    48    1
