@<TRIPOS>MOLECULE
IMPHY014109
 81 84 0 0 0
SMALL
GASTEIGER

@<TRIPOS>ATOM
      1 O          10.4586   -0.7906    0.0000 O.3     1  UNL1       -0.3914
      2 O           5.3307    0.2094    0.0000 O.2     1  UNL1       -0.2968
      3 O          10.1362    0.6540    0.0000 O.3     1  UNL1       -0.3806
      4 O           2.5357   -3.3429    0.0000 O.3     1  UNL1       -0.3834
      5 O           2.5519   -1.2513    0.0000 O.2     1  UNL1       -0.2946
      6 O           8.8285    2.6595    0.0000 O.2     1  UNL1       -0.2896
      7 O          12.7425    3.4844    0.0000 O.3     1  UNL1       -0.3851
      8 C           7.9288   -1.2906    0.0000 C.3     1  UNL1       -0.0195
      9 C           7.9288   -0.2906    0.0000 C.3     1  UNL1       -0.0114
     10 C           7.0628   -1.7906    0.0000 C.3     1  UNL1       -0.0189
     11 C           6.1968   -1.2906    0.0000 C.3     1  UNL1        0.0367
     12 C           8.8750    0.0142    0.0000 C.3     1  UNL1        0.0271
     13 C           8.8750   -1.5953    0.0000 C.3     1  UNL1       -0.0202
     14 C           9.4586   -0.7906    0.0000 C.3     1  UNL1        0.0621
     15 C           7.0628    0.2094    0.0000 C.3     1  UNL1        0.0127
     16 C           5.2868   -1.7974    0.0000 C.3     1  UNL1       -0.0002
     17 C           6.1968   -0.2906    0.0000 C.2     1  UNL1        0.1406
     18 C           7.0789   -2.8321    0.0000 C.3     1  UNL1       -0.0302
     19 C           7.9288   -2.2906    0.0000 C.3     1  UNL1       -0.0587
     20 C           7.9288    0.7094    0.0000 C.3     1  UNL1       -0.0582
     21 C           9.1857    0.9647    0.0000 C.3     1  UNL1        0.1304
     22 C           5.2787   -2.8390    0.0000 C.2     1  UNL1       -0.0605
     23 C           5.3307   -0.7906    0.0000 C.3     1  UNL1       -0.0520
     24 C           6.1808   -3.3598    0.0000 C.2     1  UNL1       -0.0835
     25 C           4.3599   -1.2333    0.0000 C.3     1  UNL1        0.0159
     26 C           4.3433   -3.3887    0.0000 C.3     1  UNL1        0.0192
     27 C           3.4037   -2.8462    0.0000 C.3     1  UNL1        0.1217
     28 C           8.2352    1.2754    0.0000 C.3     1  UNL1       -0.0284
     29 C           3.4120   -1.7613    0.0000 C.2     1  UNL1        0.1630
     30 C           9.4964    1.9152    0.0000 C.2     1  UNL1        0.1872
     31 C           3.8467   -4.2567    0.0000 C.3     1  UNL1       -0.0533
     32 C           4.8466   -4.2528    0.0000 C.3     1  UNL1       -0.0533
     33 C          10.4749    2.1214    0.0000 C.2     1  UNL1       -0.0176
     34 C          10.7855    3.0720    0.0000 C.2     1  UNL1       -0.0500
     35 C          11.7640    3.2782    0.0000 C.3     1  UNL1        0.0789
     36 C          11.5578    4.2567    0.0000 C.3     1  UNL1       -0.0327
     37 C          11.9703    2.2997    0.0000 C.3     1  UNL1       -0.0327
     38 H           7.6021   -2.0964    0.0000 H       1  UNL1        0.0319
     39 H           9.4875    0.1104    0.0000 H       1  UNL1        0.0363
     40 H           8.6240   -2.1622    0.0000 H       1  UNL1        0.0296
     41 H           9.4124   -1.9045    0.0000 H       1  UNL1        0.0296
     42 H           9.7404   -1.3429    0.0000 H       1  UNL1        0.0597
     43 H           7.4613    0.6844    0.0000 H       1  UNL1        0.0347
     44 H           6.6643    0.6844    0.0000 H       1  UNL1        0.0347
     45 H           5.8201   -2.1136    0.0000 H       1  UNL1        0.0359
     46 H           7.2969   -3.4125    0.0000 H       1  UNL1        0.0311
     47 H           7.6880   -2.7166    0.0000 H       1  UNL1        0.0311
     48 H           7.3088   -2.2906    0.0000 H       1  UNL1        0.0235
     49 H           7.9288   -2.9106    0.0000 H       1  UNL1        0.0235
     50 H           8.5488   -2.2906    0.0000 H       1  UNL1        0.0235
     51 H           8.5488    0.7094    0.0000 H       1  UNL1        0.0235
     52 H           7.9288    1.3294    0.0000 H       1  UNL1        0.0235
     53 H           7.3088    0.7094    0.0000 H       1  UNL1        0.0235
     54 H           5.6407   -0.2536    0.0000 H       1  UNL1        0.0239
     55 H           4.7938   -0.4806    0.0000 H       1  UNL1        0.0239
     56 H           5.0207   -1.3275    0.0000 H       1  UNL1        0.0239
     57 H           6.1832   -3.9798    0.0000 H       1  UNL1        0.0572
     58 H           4.7681   -0.7667    0.0000 H       1  UNL1        0.0349
     59 H           3.9700   -0.7513    0.0000 H       1  UNL1        0.0349
     60 H          10.7687   -1.3275    0.0000 H       1  UNL1        0.2098
     61 H           3.4025   -3.4662    0.0000 H       1  UNL1        0.0681
     62 H           8.4278    1.8647    0.0000 H       1  UNL1        0.0262
     63 H           7.6459    1.4680    0.0000 H       1  UNL1        0.0262
     64 H           8.0426    0.6860    0.0000 H       1  UNL1        0.0262
     65 H          10.5977    1.0681    0.0000 H       1  UNL1        0.2108
     66 H           3.3085   -3.9488    0.0000 H       1  UNL1        0.0239
     67 H           3.5387   -4.7948    0.0000 H       1  UNL1        0.0239
     68 H           4.3848   -4.5646    0.0000 H       1  UNL1        0.0239
     69 H           4.3109   -4.5649    0.0000 H       1  UNL1        0.0239
     70 H           5.1587   -4.7886    0.0000 H       1  UNL1        0.0239
     71 H           5.3824   -3.9408    0.0000 H       1  UNL1        0.0239
     72 H          10.8889    1.6600    0.0000 H       1  UNL1        0.0651
     73 H           2.0000   -3.0308    0.0000 H       1  UNL1        0.2104
     74 H          10.3715    3.5334    0.0000 H       1  UNL1        0.0601
     75 H          12.1645    4.3845    0.0000 H       1  UNL1        0.0260
     76 H          11.4300    4.8633    0.0000 H       1  UNL1        0.0260
     77 H          10.9511    4.1288    0.0000 H       1  UNL1        0.0260
     78 H          11.3636    2.1718    0.0000 H       1  UNL1        0.0260
     79 H          12.0981    1.6930    0.0000 H       1  UNL1        0.0260
     80 H          12.5769    2.4275    0.0000 H       1  UNL1        0.0260
     81 H          12.9352    4.0737    0.0000 H       1  UNL1        0.2106
@<TRIPOS>BOND
     1     1    14    1
     2     1    60    1
     3     2    17    2
     4     3    21    1
     5     3    65    1
     6     4    27    1
     7     4    73    1
     8     5    29    2
     9     6    30    2
    10     7    35    1
    11     7    81    1
    12     8     9    1
    13     8    10    1
    14     8    13    1
    15     8    19    1
    16     9    12    1
    17     9    15    1
    18     9    20    1
    19    10    11    1
    20    10    18    1
    21    10    38    1
    22    11    16    1
    23    11    17    1
    24    11    23    1
    25    12    14    1
    26    12    21    1
    27    12    39    1
    28    13    14    1
    29    13    40    1
    30    13    41    1
    31    14    42    1
    32    15    17    1
    33    15    43    1
    34    15    44    1
    35    16    22    1
    36    16    25    1
    37    16    45    1
    38    18    24    1
    39    18    46    1
    40    18    47    1
    41    19    48    1
    42    19    49    1
    43    19    50    1
    44    20    51    1
    45    20    52    1
    46    20    53    1
    47    21    28    1
    48    21    30    1
    49    22    24    2
    50    22    26    1
    51    23    54    1
    52    23    55    1
    53    23    56    1
    54    24    57    1
    55    25    29    1
    56    25    58    1
    57    25    59    1
    58    26    27    1
    59    26    31    1
    60    26    32    1
    61    27    29    1
    62    27    61    1
    63    28    62    1
    64    28    63    1
    65    28    64    1
    66    30    33    1
    67    31    66    1
    68    31    67    1
    69    31    68    1
    70    32    69    1
    71    32    70    1
    72    32    71    1
    73    33    34    2
    74    33    72    1
    75    34    35    1
    76    34    74    1
    77    35    36    1
    78    35    37    1
    79    36    75    1
    80    36    76    1
    81    36    77    1
    82    37    78    1
    83    37    79    1
    84    37    80    1
