@<TRIPOS>MOLECULE
IMPHY016394
 33 33 0 0 0
SMALL
GASTEIGER

@<TRIPOS>ATOM
      1 O           3.8660   -3.0000    0.0000 O.2     1  UNL1       -0.2927
      2 O           3.8660    3.0000    0.0000 O.2     1  UNL1       -0.2930
      3 C           3.0000   -0.5000    0.0000 C.3     1  UNL1       -0.0180
      4 C           3.8660    0.0000    0.0000 C.3     1  UNL1        0.0042
      5 C           3.0000   -1.5000    0.0000 C.3     1  UNL1        0.0158
      6 C           4.7320   -0.5000    0.0000 C.2     1  UNL1       -0.0620
      7 C           2.0000   -0.5000    0.0000 C.3     1  UNL1       -0.0586
      8 C           2.5000    0.3660    0.0000 C.3     1  UNL1       -0.0586
      9 C           3.8660   -2.0000    0.0000 C.2     1  UNL1        0.1566
     10 C           3.8660    1.0000    0.0000 C.2     1  UNL1       -0.0731
     11 C           4.7320   -1.5000    0.0000 C.2     1  UNL1       -0.0196
     12 C           5.5981   -0.0000    0.0000 C.3     1  UNL1       -0.0428
     13 C           4.7320    1.5000    0.0000 C.2     1  UNL1       -0.0228
     14 C           4.7320    2.5000    0.0000 C.2     1  UNL1        0.1528
     15 C           5.5981    3.0000    0.0000 C.3     1  UNL1       -0.0020
     16 H           4.4030    0.3100    0.0000 H       1  UNL1        0.0393
     17 H           2.3894   -1.3923    0.0000 H       1  UNL1        0.0350
     18 H           2.7880   -2.0826    0.0000 H       1  UNL1        0.0350
     19 H           2.0000    0.1200    0.0000 H       1  UNL1        0.0235
     20 H           1.3800   -0.5000    0.0000 H       1  UNL1        0.0235
     21 H           2.0000   -1.1200    0.0000 H       1  UNL1        0.0235
     22 H           3.0369    0.6760    0.0000 H       1  UNL1        0.0235
     23 H           2.1900    0.9030    0.0000 H       1  UNL1        0.0235
     24 H           1.9631    0.0560    0.0000 H       1  UNL1        0.0235
     25 H           3.3291    1.3100    0.0000 H       1  UNL1        0.0579
     26 H           5.2690   -1.8100    0.0000 H       1  UNL1        0.0652
     27 H           5.9081   -0.5369    0.0000 H       1  UNL1        0.0275
     28 H           6.1350    0.3100    0.0000 H       1  UNL1        0.0275
     29 H           5.2881    0.5369    0.0000 H       1  UNL1        0.0275
     30 H           5.2690    1.1900    0.0000 H       1  UNL1        0.0649
     31 H           5.9081    2.4631    0.0000 H       1  UNL1        0.0309
     32 H           6.1350    3.3100    0.0000 H       1  UNL1        0.0309
     33 H           5.2881    3.5369    0.0000 H       1  UNL1        0.0309
@<TRIPOS>BOND
     1     1     9    2
     2     2    14    2
     3     3     4    1
     4     3     5    1
     5     3     7    1
     6     3     8    1
     7     4     6    1
     8     4    10    1
     9     4    16    1
    10     5     9    1
    11     5    17    1
    12     5    18    1
    13     6    11    2
    14     6    12    1
    15     7    19    1
    16     7    20    1
    17     7    21    1
    18     8    22    1
    19     8    23    1
    20     8    24    1
    21     9    11    1
    22    10    13    2
    23    10    25    1
    24    11    26    1
    25    12    27    1
    26    12    28    1
    27    12    29    1
    28    13    14    1
    29    13    30    1
    30    14    15    1
    31    15    31    1
    32    15    32    1
    33    15    33    1
