@<TRIPOS>MOLECULE
IMPHY010741
 35 39 0 0 0
SMALL
GASTEIGER

@<TRIPOS>ATOM
      1 C           1.1473   -7.9224    0.0000 C.3     1  UNL1       -0.0033
      2 C           2.2674   -7.2539    0.0000 C.3     1  UNL1       -0.0169
      3 C           2.2674   -5.9260    0.0000 C.3     1  UNL1       -0.0066
      4 C           3.3785   -5.2666    0.0000 C.3     1  UNL1       -0.0170
      5 C           4.4806   -5.9260    0.0000 C.3     1  UNL1        0.0245
      6 C           5.6279   -5.2666    0.0000 C.3     1  UNL1       -0.0016
      7 C           5.6279   -3.9477    0.0000 C.3     1  UNL1       -0.0221
      8 C           6.7661   -3.3243    0.0000 C.3     1  UNL1       -0.0190
      9 C           7.8863   -3.9477    0.0000 C.3     1  UNL1       -0.0033
     10 C           7.8863   -5.2666    0.0000 C.3     1  UNL1       -0.0003
     11 C           6.7661   -5.9260    0.0000 C.3     1  UNL1       -0.0002
     12 C           0.0000   -7.2539    0.0000 C.3     1  UNL1       -0.0003
     13 C           0.0000   -5.9260    0.0000 C.3     1  UNL1       -0.0000
     14 C           1.1473   -5.2666    0.0000 C.3     1  UNL1       -0.0006
     15 C           3.3785   -7.9224    0.0000 C.3     1  UNL1        0.0289
     16 C           4.4806   -7.2539    0.0000 C.3     1  UNL1        0.1513
     17 C           3.3785   -3.9477    0.0000 C.3     1  UNL1       -0.0042
     18 C           4.4806   -3.3243    0.0000 C.3     1  UNL1       -0.0045
     19 C           6.7661   -1.9964    0.0000 C.3     1  UNL1        0.0144
     20 C           9.0335   -1.9964    0.0000 C.3     1  UNL1        0.0037
     21 C           9.0335   -3.3243    0.0000 C.3     1  UNL1        0.0000
     22 C           1.7977   -9.0335    0.0000 C.3     1  UNL1       -0.0003
     23 C           0.4697   -9.0335    0.0000 C.3     1  UNL1       -0.0003
     24 C           2.2674   -4.6161    0.0000 C.3     1  UNL1       -0.0006
     25 C           4.4806   -4.6252    0.0000 C.3     1  UNL1        0.0022
     26 C           5.6731   -6.6035    0.0000 C.3     1  UNL1       -0.0002
     27 C           7.8863   -2.7372    0.0000 C.3     1  UNL1       -0.0003
     28 O           5.6550   -7.8953    0.0000 O.3     1  UNL1       -0.2232
     29 C           5.6279   -1.3370    0.0000 C.2     1  UNL1       -0.0445
     30 C           5.6279    0.0000    0.0000 C.2     1  UNL1       -0.0091
     31 C           4.4806   -1.9964    0.0000 C.3     1  UNL1        0.0263
     32 H           3.4056   -6.5854    0.0000 H       1  UNL1        0.0319
     33 H           2.2765   -8.4825    0.0000 H       1  UNL1        0.0319
     34 H           6.7661   -4.6252    0.0000 H       1  UNL1        0.0319
     35 H           5.6460   -2.6649    0.0000 H       1  UNL1        0.0316
@<TRIPOS>BOND
     1     1     2    1
     2     1    12    1
     3     1    22    1
     4     1    23    1
     5     2     3    1
     6     2    15    1
     7     2    33    1
     8     3    14    1
     9     3     4    1
    10     3    24    1
    11     4     5    1
    12     4    17    1
    13     4    32    1
    14     5    16    1
    15     5     6    1
    16     5    25    1
    17     6     7    1
    18     6    11    1
    19     6    26    1
    20     7    18    1
    21     7     8    1
    22     7    35    1
    23     8     9    1
    24     8    19    1
    25     8    34    1
    26     9    10    1
    27     9    21    1
    28     9    27    1
    29    10    11    1
    30    12    13    1
    31    13    14    1
    32    15    16    1
    33    16    28    1
    34    17    18    1
    35    19    20    1
    36    19    29    1
    37    20    21    1
    38    29    30    2
    39    29    31    1
