@<TRIPOS>MOLECULE
IMPHY016258
 39 39 0 0 0
SMALL
GASTEIGER

@<TRIPOS>ATOM
      1 O           2.5369    0.5000    0.0000 O.3     1  UNL1       -0.3907
      2 C           7.7331    0.5000    0.0000 C.3     1  UNL1       -0.0133
      3 C           8.5991   -0.0000    0.0000 C.3     1  UNL1       -0.0439
      4 C           6.8671   -0.0000    0.0000 C.2     1  UNL1       -0.0612
      5 C           8.5991   -1.0000    0.0000 C.3     1  UNL1       -0.0486
      6 C           7.7331   -1.5000    0.0000 C.3     1  UNL1       -0.0317
      7 C           6.8671   -1.0000    0.0000 C.2     1  UNL1       -0.0726
      8 C           8.2331    1.3660    0.0000 C.3     1  UNL1       -0.0561
      9 C           7.2331    1.3660    0.0000 C.3     1  UNL1       -0.0561
     10 C           6.0010    0.5000    0.0000 C.3     1  UNL1       -0.0125
     11 C           6.0010   -1.5000    0.0000 C.3     1  UNL1       -0.0435
     12 C           5.1350    0.0000    0.0000 C.2     1  UNL1       -0.0789
     13 C           4.2690    0.5000    0.0000 C.2     1  UNL1       -0.0512
     14 C           3.4030    0.0000    0.0000 C.3     1  UNL1        0.0651
     15 C           4.2690    1.5000    0.0000 C.3     1  UNL1       -0.0416
     16 H           9.2097   -0.1077    0.0000 H       1  UNL1        0.0274
     17 H           8.8112    0.5826    0.0000 H       1  UNL1        0.0274
     18 H           8.8112   -1.5826    0.0000 H       1  UNL1        0.0269
     19 H           9.2097   -0.8923    0.0000 H       1  UNL1        0.0269
     20 H           7.3346   -1.9750    0.0000 H       1  UNL1        0.0310
     21 H           8.1316   -1.9750    0.0000 H       1  UNL1        0.0310
     22 H           8.7700    1.0560    0.0000 H       1  UNL1        0.0238
     23 H           8.5431    1.9030    0.0000 H       1  UNL1        0.0238
     24 H           7.6962    1.6760    0.0000 H       1  UNL1        0.0238
     25 H           7.7700    1.6760    0.0000 H       1  UNL1        0.0238
     26 H           6.9231    1.9030    0.0000 H       1  UNL1        0.0238
     27 H           6.6962    1.0560    0.0000 H       1  UNL1        0.0238
     28 H           6.3996    0.9749    0.0000 H       1  UNL1        0.0353
     29 H           5.6025    0.9749    0.0000 H       1  UNL1        0.0353
     30 H           5.6910   -0.9631    0.0000 H       1  UNL1        0.0274
     31 H           5.4641   -1.8100    0.0000 H       1  UNL1        0.0274
     32 H           6.3110   -2.0369    0.0000 H       1  UNL1        0.0274
     33 H           5.1350   -0.6200    0.0000 H       1  UNL1        0.0575
     34 H           3.0044   -0.4749    0.0000 H       1  UNL1        0.0604
     35 H           3.8015   -0.4749    0.0000 H       1  UNL1        0.0604
     36 H           4.8890    1.5000    0.0000 H       1  UNL1        0.0275
     37 H           4.2690    2.1200    0.0000 H       1  UNL1        0.0275
     38 H           3.6490    1.5000    0.0000 H       1  UNL1        0.0275
     39 H           2.0000    0.1900    0.0000 H       1  UNL1        0.2098
@<TRIPOS>BOND
     1     1    14    1
     2     1    39    1
     3     2     3    1
     4     2     4    1
     5     2     8    1
     6     2     9    1
     7     3     5    1
     8     3    16    1
     9     3    17    1
    10     4     7    2
    11     4    10    1
    12     5     6    1
    13     5    18    1
    14     5    19    1
    15     6     7    1
    16     6    20    1
    17     6    21    1
    18     7    11    1
    19     8    22    1
    20     8    23    1
    21     8    24    1
    22     9    25    1
    23     9    26    1
    24     9    27    1
    25    10    12    1
    26    10    28    1
    27    10    29    1
    28    11    30    1
    29    11    31    1
    30    11    32    1
    31    12    13    2
    32    12    33    1
    33    13    14    1
    34    13    15    1
    35    14    34    1
    36    14    35    1
    37    15    36    1
    38    15    37    1
    39    15    38    1
