@<TRIPOS>MOLECULE
IMPHY011000
 80 84 0 0 0
SMALL
GASTEIGER

@<TRIPOS>ATOM
      1 C           5.6591   -1.1050    0.0000 C.3     1  UNL1       -0.0194
      2 C           4.7931   -0.6051    0.0000 C.3     1  UNL1       -0.0257
      3 C           3.8831   -1.1119    0.0000 C.3     1  UNL1       -0.0251
      4 C           6.5251   -0.6051    0.0000 C.3     1  UNL1       -0.0051
      5 C           3.8751   -2.1535    0.0000 C.3     1  UNL1       -0.0302
      6 C           5.6752   -2.1466    0.0000 C.3     1  UNL1       -0.0463
      7 C           6.5251    0.3949    0.0000 C.2     1  UNL1       -0.0632
      8 C           7.4191    0.9296    0.0000 C.3     1  UNL1       -0.0111
      9 C           4.7771   -2.6743    0.0000 C.3     1  UNL1       -0.0487
     10 C           8.3252    0.4158    0.0000 C.3     1  UNL1       -0.0253
     11 C           2.9396   -2.7032    0.0000 C.3     1  UNL1       -0.0315
     12 C           7.4191   -1.1397    0.0000 C.3     1  UNL1       -0.0429
     13 C           4.7931    0.3949    0.0000 C.3     1  UNL1       -0.0306
     14 C           2.9562   -0.5478    0.0000 C.3     1  UNL1       -0.0471
     15 C           8.3252   -0.6259    0.0000 C.3     1  UNL1       -0.0463
     16 C           6.3019   -1.8711    0.0000 C.3     1  UNL1       -0.0585
     17 C           5.6591    0.8949    0.0000 C.2     1  UNL1       -0.0836
     18 C           7.3940    2.0143    0.0000 C.3     1  UNL1       -0.0343
     19 C           3.8908   -0.1119    0.0000 C.3     1  UNL1       -0.0590
     20 C           6.8672   -1.5447    0.0000 C.3     1  UNL1       -0.0553
     21 C           2.0000   -2.1607    0.0000 C.3     1  UNL1       -0.0476
     22 C           2.0084   -1.0758    0.0000 C.3     1  UNL1       -0.0521
     23 C           9.2689    0.9510    0.0000 C.3     1  UNL1       -0.0468
     24 C           8.3252    2.5712    0.0000 C.3     1  UNL1       -0.0407
     25 C           9.2689    2.0360    0.0000 C.3     1  UNL1       -0.0497
     26 C           9.1950   -0.0775    0.0000 C.3     1  UNL1       -0.0590
     27 C           2.4430   -3.5712    0.0000 C.3     1  UNL1       -0.0595
     28 C           3.4430   -3.5673    0.0000 C.3     1  UNL1       -0.0595
     29 C           6.5185    2.4975    0.0000 C.3     1  UNL1       -0.0616
     30 C           8.3136    3.5712    0.0000 C.3     1  UNL1       -0.0622
     31 H           5.5292   -0.1801    0.0000 H       1  UNL1        0.0315
     32 H           3.8783   -3.0035    0.0000 H       1  UNL1        0.0311
     33 H           5.8932   -2.7270    0.0000 H       1  UNL1        0.0271
     34 H           6.2843   -2.0311    0.0000 H       1  UNL1        0.0271
     35 H           6.6749    1.3404    0.0000 H       1  UNL1        0.0354
     36 H           4.3798   -3.1503    0.0000 H       1  UNL1        0.0268
     37 H           5.1781   -3.1472    0.0000 H       1  UNL1        0.0268
     38 H           7.0145   -1.6095    0.0000 H       1  UNL1        0.0274
     39 H           7.8127   -1.6187    0.0000 H       1  UNL1        0.0274
     40 H           4.5810    0.9776    0.0000 H       1  UNL1        0.0310
     41 H           4.1825    0.2873    0.0000 H       1  UNL1        0.0310
     42 H           3.3645   -0.0812    0.0000 H       1  UNL1        0.0271
     43 H           2.5663   -0.0658    0.0000 H       1  UNL1        0.0271
     44 H           8.5342   -1.2096    0.0000 H       1  UNL1        0.0271
     45 H           8.9360   -0.5198    0.0000 H       1  UNL1        0.0271
     46 H           5.8270   -2.2696    0.0000 H       1  UNL1        0.0235
     47 H           6.7004   -2.3460    0.0000 H       1  UNL1        0.0235
     48 H           6.7768   -1.4726    0.0000 H       1  UNL1        0.0235
     49 H           5.6591    1.5150    0.0000 H       1  UNL1        0.0572
     50 H           7.3832    2.6342    0.0000 H       1  UNL1        0.0307
     51 H           4.5108   -0.1167    0.0000 H       1  UNL1        0.0235
     52 H           3.8956    0.5081    0.0000 H       1  UNL1        0.0235
     53 H           3.2708   -0.1071    0.0000 H       1  UNL1        0.0235
     54 H           6.2847   -1.7568    0.0000 H       1  UNL1        0.0238
     55 H           7.0794   -2.1273    0.0000 H       1  UNL1        0.0238
     56 H           7.4498   -1.3326    0.0000 H       1  UNL1        0.0238
     57 H           1.3900   -2.0499    0.0000 H       1  UNL1        0.0271
     58 H           1.7864   -2.7428    0.0000 H       1  UNL1        0.0271
     59 H           1.8038   -0.4905    0.0000 H       1  UNL1        0.0266
     60 H           1.3967   -1.1771    0.0000 H       1  UNL1        0.0266
     61 H           9.4780    0.3673    0.0000 H       1  UNL1        0.0271
     62 H           9.8798    1.0571    0.0000 H       1  UNL1        0.0271
     63 H           7.7841    2.8740    0.0000 H       1  UNL1        0.0301
     64 H           9.8798    1.9299    0.0000 H       1  UNL1        0.0268
     65 H           9.4780    2.6197    0.0000 H       1  UNL1        0.0268
     66 H           8.8892   -0.6169    0.0000 H       1  UNL1        0.0235
     67 H           9.7343   -0.3834    0.0000 H       1  UNL1        0.0235
     68 H           9.5008    0.4618    0.0000 H       1  UNL1        0.0235
     69 H           1.9048   -3.2632    0.0000 H       1  UNL1        0.0235
     70 H           2.1350   -4.1093    0.0000 H       1  UNL1        0.0235
     71 H           2.9811   -3.8791    0.0000 H       1  UNL1        0.0235
     72 H           2.9072   -3.8794    0.0000 H       1  UNL1        0.0235
     73 H           3.7550   -4.1030    0.0000 H       1  UNL1        0.0235
     74 H           3.9787   -3.2553    0.0000 H       1  UNL1        0.0235
     75 H           6.8181    3.0403    0.0000 H       1  UNL1        0.0233
     76 H           5.9757    2.7971    0.0000 H       1  UNL1        0.0233
     77 H           6.2189    1.9547    0.0000 H       1  UNL1        0.0233
     78 H           8.9335    3.5783    0.0000 H       1  UNL1        0.0233
     79 H           8.3064    4.1911    0.0000 H       1  UNL1        0.0233
     80 H           7.6936    3.5640    0.0000 H       1  UNL1        0.0233
@<TRIPOS>BOND
     1     1     2    1
     2     1     4    1
     3     1     6    1
     4     1    16    1
     5     2     3    1
     6     2    13    1
     7     2    31    1
     8     3     5    1
     9     3    14    1
    10     3    19    1
    11     4     7    1
    12     4    12    1
    13     4    20    1
    14     5     9    1
    15     5    11    1
    16     5    32    1
    17     6     9    1
    18     6    33    1
    19     6    34    1
    20     7     8    1
    21     7    17    2
    22     8    10    1
    23     8    18    1
    24     8    35    1
    25     9    36    1
    26     9    37    1
    27    10    15    1
    28    10    23    1
    29    10    26    1
    30    11    21    1
    31    11    27    1
    32    11    28    1
    33    12    15    1
    34    12    38    1
    35    12    39    1
    36    13    17    1
    37    13    40    1
    38    13    41    1
    39    14    22    1
    40    14    42    1
    41    14    43    1
    42    15    44    1
    43    15    45    1
    44    16    46    1
    45    16    47    1
    46    16    48    1
    47    17    49    1
    48    18    24    1
    49    18    29    1
    50    18    50    1
    51    19    51    1
    52    19    52    1
    53    19    53    1
    54    20    54    1
    55    20    55    1
    56    20    56    1
    57    21    22    1
    58    21    57    1
    59    21    58    1
    60    22    59    1
    61    22    60    1
    62    23    25    1
    63    23    61    1
    64    23    62    1
    65    24    25    1
    66    24    30    1
    67    24    63    1
    68    25    64    1
    69    25    65    1
    70    26    66    1
    71    26    67    1
    72    26    68    1
    73    27    69    1
    74    27    70    1
    75    27    71    1
    76    28    72    1
    77    28    73    1
    78    28    74    1
    79    29    75    1
    80    29    76    1
    81    29    77    1
    82    30    78    1
    83    30    79    1
    84    30    80    1
