@<TRIPOS>MOLECULE
IMPHY002863
 78 81 0 0 0
SMALL
GASTEIGER

@<TRIPOS>ATOM
      1 O           5.6489   -4.1911    0.0000 O.2     1  UNL1       -0.2971
      2 O          10.2963    0.5953    0.0000 O.3     1  UNL1       -0.3890
      3 O           2.0000   -3.1742    0.0000 O.2     1  UNL1       -0.2974
      4 O           9.2713    3.0344    0.0000 O.3     1  UNL1       -0.3890
      5 C           7.3931   -0.1219    0.0000 C.3     1  UNL1       -0.0258
      6 C           7.3931   -1.1219    0.0000 C.3     1  UNL1       -0.0319
      7 C           6.5271   -1.6219    0.0000 C.3     1  UNL1       -0.0277
      8 C           5.6610   -1.1219    0.0000 C.3     1  UNL1       -0.0315
      9 C           8.3393    0.1828    0.0000 C.3     1  UNL1       -0.0304
     10 C           4.7510   -1.6287    0.0000 C.3     1  UNL1       -0.0187
     11 C           6.5271    0.3781    0.0000 C.3     1  UNL1       -0.0468
     12 C           8.3393   -1.4266    0.0000 C.3     1  UNL1       -0.0492
     13 C           5.6610   -0.1219    0.0000 C.3     1  UNL1       -0.0489
     14 C           8.9229   -0.6219    0.0000 C.3     1  UNL1       -0.0491
     15 C           4.7430   -2.6703    0.0000 C.3     1  UNL1        0.0298
     16 C           6.5431   -2.6634    0.0000 C.3     1  UNL1        0.0095
     17 C           8.6500    1.1334    0.0000 C.3     1  UNL1       -0.0120
     18 C           7.3931    0.8781    0.0000 C.3     1  UNL1       -0.0590
     19 C           3.8242   -1.0647    0.0000 C.3     1  UNL1       -0.0400
     20 C           5.6451   -3.1912    0.0000 C.2     1  UNL1        0.1376
     21 C           4.7587   -0.6288    0.0000 C.3     1  UNL1       -0.0586
     22 C           3.8076   -3.2201    0.0000 C.3     1  UNL1        0.0158
     23 C           9.6285    1.3396    0.0000 C.3     1  UNL1        0.0841
     24 C           2.8763   -1.5926    0.0000 C.3     1  UNL1        0.0064
     25 C           7.9821    1.8777    0.0000 C.3     1  UNL1       -0.0597
     26 C           2.8680   -2.6776    0.0000 C.2     1  UNL1        0.1341
     27 C           9.9391    2.2901    0.0000 C.3     1  UNL1        0.0841
     28 C          10.9176    2.4963    0.0000 C.3     1  UNL1       -0.0130
     29 C          11.2283    3.4468    0.0000 C.3     1  UNL1       -0.0417
     30 C          11.5855    1.7520    0.0000 C.3     1  UNL1       -0.0597
     31 C          12.2068    3.6531    0.0000 C.3     1  UNL1       -0.0623
     32 C          10.5605    4.1911    0.0000 C.3     1  UNL1       -0.0623
     33 H           7.4830   -1.9671    0.0000 H       1  UNL1        0.0309
     34 H           7.2664   -2.0412    0.0000 H       1  UNL1        0.0310
     35 H           6.3972   -0.6969    0.0000 H       1  UNL1        0.0309
     36 H           9.1790    0.3147    0.0000 H       1  UNL1        0.0310
     37 H           6.9256    0.8531    0.0000 H       1  UNL1        0.0271
     38 H           6.1285    0.8531    0.0000 H       1  UNL1        0.0271
     39 H           8.0883   -1.9935    0.0000 H       1  UNL1        0.0268
     40 H           8.8767   -1.7358    0.0000 H       1  UNL1        0.0268
     41 H           5.4490    0.4607    0.0000 H       1  UNL1        0.0268
     42 H           5.0504   -0.2296    0.0000 H       1  UNL1        0.0268
     43 H           9.3838   -1.0366    0.0000 H       1  UNL1        0.0268
     44 H           9.3838   -0.2072    0.0000 H       1  UNL1        0.0268
     45 H           4.7463   -3.5203    0.0000 H       1  UNL1        0.0387
     46 H           6.7612   -3.2438    0.0000 H       1  UNL1        0.0345
     47 H           7.1523   -2.5479    0.0000 H       1  UNL1        0.0345
     48 H           8.0433    1.0055    0.0000 H       1  UNL1        0.0327
     49 H           8.0131    0.8781    0.0000 H       1  UNL1        0.0235
     50 H           7.3931    1.4981    0.0000 H       1  UNL1        0.0235
     51 H           6.7731    0.8781    0.0000 H       1  UNL1        0.0235
     52 H           4.2324   -0.5980    0.0000 H       1  UNL1        0.0275
     53 H           3.4343   -0.5826    0.0000 H       1  UNL1        0.0275
     54 H           5.3787   -0.6335    0.0000 H       1  UNL1        0.0235
     55 H           4.7635   -0.0088    0.0000 H       1  UNL1        0.0235
     56 H           4.1388   -0.6240    0.0000 H       1  UNL1        0.0235
     57 H           3.4103   -3.6960    0.0000 H       1  UNL1        0.0348
     58 H           4.2085   -3.6930    0.0000 H       1  UNL1        0.0348
     59 H           9.4359    0.7503    0.0000 H       1  UNL1        0.0622
     60 H           2.6718   -1.0073    0.0000 H       1  UNL1        0.0342
     61 H           2.2647   -1.6940    0.0000 H       1  UNL1        0.0342
     62 H           8.4436    2.2917    0.0000 H       1  UNL1        0.0233
     63 H           7.5681    2.3391    0.0000 H       1  UNL1        0.0233
     64 H           7.5207    1.4636    0.0000 H       1  UNL1        0.0233
     65 H          10.1317    2.8794    0.0000 H       1  UNL1        0.0622
     66 H          10.7250    1.9070    0.0000 H       1  UNL1        0.0326
     67 H          10.9030    0.7231    0.0000 H       1  UNL1        0.2099
     68 H          11.4209    4.0362    0.0000 H       1  UNL1        0.0299
     69 H           9.4639    3.6237    0.0000 H       1  UNL1        0.2099
     70 H          11.1240    1.3380    0.0000 H       1  UNL1        0.0233
     71 H          11.9995    1.2906    0.0000 H       1  UNL1        0.0233
     72 H          12.0470    2.1661    0.0000 H       1  UNL1        0.0233
     73 H          12.3347    3.0464    0.0000 H       1  UNL1        0.0232
     74 H          12.8135    3.7809    0.0000 H       1  UNL1        0.0232
     75 H          12.0790    4.2597    0.0000 H       1  UNL1        0.0232
     76 H          11.0219    4.6052    0.0000 H       1  UNL1        0.0232
     77 H          10.1464    4.6526    0.0000 H       1  UNL1        0.0232
     78 H          10.0990    3.7771    0.0000 H       1  UNL1        0.0232
@<TRIPOS>BOND
     1     1    20    2
     2    23     2    1
     3     2    67    1
     4     3    26    2
     5    27     4    1
     6     4    69    1
     7     5     6    1
     8     5     9    1
     9     5    11    1
    10     5    18    1
    11     6     7    1
    12     6    12    1
    13     6    33    1
    14     7     8    1
    15     7    16    1
    16     7    34    1
    17     8    10    1
    18     8    13    1
    19     8    35    1
    20     9    14    1
    21     9    17    1
    22     9    36    1
    23    10    15    1
    24    10    19    1
    25    10    21    1
    26    11    13    1
    27    11    37    1
    28    11    38    1
    29    12    14    1
    30    12    39    1
    31    12    40    1
    32    13    41    1
    33    13    42    1
    34    14    43    1
    35    14    44    1
    36    15    20    1
    37    15    22    1
    38    15    45    1
    39    16    20    1
    40    16    46    1
    41    16    47    1
    42    17    23    1
    43    17    25    1
    44    17    48    1
    45    18    49    1
    46    18    50    1
    47    18    51    1
    48    19    24    1
    49    19    52    1
    50    19    53    1
    51    21    54    1
    52    21    55    1
    53    21    56    1
    54    22    26    1
    55    22    57    1
    56    22    58    1
    57    23    27    1
    58    23    59    1
    59    24    26    1
    60    24    60    1
    61    24    61    1
    62    25    62    1
    63    25    63    1
    64    25    64    1
    65    27    28    1
    66    27    65    1
    67    28    29    1
    68    28    30    1
    69    28    66    1
    70    29    31    1
    71    29    32    1
    72    29    68    1
    73    30    70    1
    74    30    71    1
    75    30    72    1
    76    31    73    1
    77    31    74    1
    78    31    75    1
    79    32    76    1
    80    32    77    1
    81    32    78    1
