@<TRIPOS>MOLECULE
IMPHY004833
 50 53 0 0 0
SMALL
GASTEIGER

@<TRIPOS>ATOM
      1 O           5.8324   -1.8079    0.0000 O.3     1  UNL1       -0.3532
      2 O           5.2229    0.7151    0.0000 O.3     1  UNL1       -0.4573
      3 O           2.6248    0.2151    0.0000 O.3     1  UNL1       -0.4582
      4 O           3.7806   -0.2081    0.0000 O.2     1  UNL1       -0.2475
      5 O           2.0000   -2.1169    0.0000 O.3     1  UNL1       -0.3774
      6 O           4.0487   -1.0336    0.0000 O.2     1  UNL1       -0.2476
      7 N           4.5661    3.1869    0.0000 N.3     1  UNL1       -0.2886
      8 C           5.0391   -1.1992    0.0000 C.3     1  UNL1        0.1916
      9 C           5.9629   -0.8165    0.0000 C.3     1  UNL1        0.0968
     10 C           4.3569    2.2151    0.0000 C.3     1  UNL1        0.0723
     11 C           4.5391   -2.0652    0.0000 C.3     1  UNL1       -0.0050
     12 C           5.2229    1.7151    0.0000 C.3     1  UNL1        0.1236
     13 C           3.5731   -2.3240    0.0000 C.3     1  UNL1       -0.0015
     14 C           5.9599    2.3821    0.0000 C.3     1  UNL1       -0.0010
     15 C           5.5548    3.2899    0.0000 C.3     1  UNL1        0.0033
     16 C           4.7802   -0.2332    0.0000 C.2     1  UNL1        0.3424
     17 C           3.4909    1.7151    0.0000 C.2     1  UNL1       -0.0148
     18 C           5.0705    2.3140    0.0000 C.3     1  UNL1        0.0182
     19 C           2.8660   -1.6169    0.0000 C.3     1  UNL1        0.1618
     20 C           6.5717   -0.0231    0.0000 C.3     1  UNL1       -0.0354
     21 C           4.4758    1.4999    0.0000 C.2     1  UNL1       -0.0660
     22 C           3.3143   -3.2899    0.0000 C.3     1  UNL1       -0.0592
     23 C           3.4909    0.7151    0.0000 C.3     1  UNL1        0.1153
     24 C           3.1248   -0.6510    0.0000 C.2     1  UNL1        0.3394
     25 C           2.0000   -1.1168    0.0000 C.3     1  UNL1       -0.0253
     26 H           6.5357   -1.0537    0.0000 H       1  UNL1        0.0628
     27 H           3.9319    2.9512    0.0000 H       1  UNL1        0.0547
     28 H           4.5391   -2.6852    0.0000 H       1  UNL1        0.0303
     29 H           5.1379   -2.2256    0.0000 H       1  UNL1        0.0303
     30 H           5.9999    1.3703    0.0000 H       1  UNL1        0.0753
     31 H           2.9743   -2.4845    0.0000 H       1  UNL1        0.0332
     32 H           6.3254    1.8813    0.0000 H       1  UNL1        0.0314
     33 H           6.4964    2.6929    0.0000 H       1  UNL1        0.0314
     34 H           6.1444    3.4817    0.0000 H       1  UNL1        0.0428
     35 H           5.4261    3.8964    0.0000 H       1  UNL1        0.0428
     36 H           5.5158    1.8826    0.0000 H       1  UNL1        0.0470
     37 H           5.5593    2.6954    0.0000 H       1  UNL1        0.0470
     38 H           7.0636   -0.4006    0.0000 H       1  UNL1        0.0256
     39 H           6.9491    0.4688    0.0000 H       1  UNL1        0.0256
     40 H           6.0798    0.3543    0.0000 H       1  UNL1        0.0256
     41 H           4.6956    0.9202    0.0000 H       1  UNL1        0.0586
     42 H           2.7154   -3.1295    0.0000 H       1  UNL1        0.0233
     43 H           3.1538   -3.8888    0.0000 H       1  UNL1        0.0233
     44 H           3.9132   -3.4504    0.0000 H       1  UNL1        0.0233
     45 H           3.7029    0.1324    0.0000 H       1  UNL1        0.0746
     46 H           4.1014    0.8227    0.0000 H       1  UNL1        0.0746
     47 H           2.3101   -0.5799    0.0000 H       1  UNL1        0.0263
     48 H           1.4632   -0.8068    0.0000 H       1  UNL1        0.0263
     49 H           1.6900   -1.6537    0.0000 H       1  UNL1        0.0263
     50 H           2.0000   -2.7369    0.0000 H       1  UNL1        0.2109
@<TRIPOS>BOND
     1     8     1    1
     2     1     9    1
     3     2    12    1
     4     2    16    1
     5     3    23    1
     6     3    24    1
     7     4    16    2
     8    19     5    1
     9     5    50    1
    10     6    24    2
    11     7    10    1
    12     7    15    1
    13     7    18    1
    14     8     9    1
    15     8    11    1
    16     8    16    1
    17     9    20    1
    18     9    26    1
    19    10    12    1
    20    10    17    1
    21    10    27    1
    22    11    13    1
    23    11    28    1
    24    11    29    1
    25    12    14    1
    26    12    30    1
    27    13    19    1
    28    13    22    1
    29    13    31    1
    30    14    15    1
    31    14    32    1
    32    14    33    1
    33    15    34    1
    34    15    35    1
    35    17    21    2
    36    17    23    1
    37    18    21    1
    38    18    36    1
    39    18    37    1
    40    19    24    1
    41    19    25    1
    42    20    38    1
    43    20    39    1
    44    20    40    1
    45    21    41    1
    46    22    42    1
    47    22    43    1
    48    22    44    1
    49    23    45    1
    50    23    46    1
    51    25    47    1
    52    25    48    1
    53    25    49    1
