@<TRIPOS>MOLECULE
IMPHY004676
 24 24 0 0 0
SMALL
GASTEIGER

@<TRIPOS>ATOM
      1 O           2.5369   -1.2500    0.0000 O.3     1  UNL1       -0.4793
      2 OXT         3.4030   -2.7500    0.0000 O.2     1  UNL1       -0.2489
      3 O           7.7331   -1.2500    0.0000 O.3     1  UNL1       -0.4763
      4 OXT         6.8671   -2.7500    0.0000 O.2     1  UNL1       -0.2437
      5 O           4.2690    2.7500    0.0000 O.2     1  UNL1       -0.2963
      6 N           5.1350   -1.7500    0.0000 N.pl3   1  UNL1       -0.3256
      7 CA          4.2690   -1.2500    0.0000 C.3     1  UNL1        0.1224
      8 C           4.2690   -0.2500    0.0000 C.3     1  UNL1        0.0013
      9 C           5.1350    0.2500    0.0000 C.2     1  UNL1       -0.0401
     10 CA          6.0010   -1.2500    0.0000 C.2     1  UNL1        0.1130
     11 C           6.0010   -0.2500    0.0000 C.2     1  UNL1       -0.0305
     12 C           3.4030   -1.7500    0.0000 C.2     1  UNL1        0.3255
     13 C           5.1350    1.2500    0.0000 C.2     1  UNL1       -0.0191
     14 C           6.8671   -1.7500    0.0000 C.2     1  UNL1        0.3508
     15 C           4.2690    1.7500    0.0000 C.2     1  UNL1        0.1434
     16 HA          4.2690   -1.8700    0.0000 H       1  UNL1        0.0617
     17 H           4.0569    0.3326    0.0000 H       1  UNL1        0.0337
     18 H           3.6584   -0.3577    0.0000 H       1  UNL1        0.0337
     19 H           5.1350   -2.3700    0.0000 H       1  UNL1        0.1471
     20 H           6.5380    0.0600    0.0000 H       1  UNL1        0.0641
     21 H           5.6720    1.5600    0.0000 H       1  UNL1        0.0652
     22 H           2.0000   -1.5600    0.0000 H       1  UNL1        0.2951
     23 H           3.7320    1.4400    0.0000 H       1  UNL1        0.1075
     24 H           8.2700   -1.5600    0.0000 H       1  UNL1        0.2954
@<TRIPOS>BOND
     1     1    12    1
     2     1    22    1
     3     2    12    2
     4     3    14    1
     5     3    24    1
     6     4    14    2
     7     5    15    2
     8     6     7    1
     9     6    10    1
    10     6    19    1
    11     7     8    1
    12     7    12    1
    13     7    16    1
    14     8     9    1
    15     8    17    1
    16     8    18    1
    17     9    11    1
    18     9    13    2
    19    10    11    2
    20    10    14    1
    21    11    20    1
    22    13    15    1
    23    13    21    1
    24    15    23    1
