@<TRIPOS>MOLECULE
IMPHY005554
 80 83 0 0 0
SMALL
GASTEIGER

@<TRIPOS>ATOM
      1 O           9.4651   -0.0950    0.0000 O.3     1  UNL1       -0.3394
      2 O           7.7331    0.9050    0.0000 O.3     1  UNL1       -0.3460
      3 O           6.8671    2.4050    0.0000 O.3     1  UNL1       -0.3431
      4 O           7.7331   -2.0950    0.0000 O.3     1  UNL1       -0.4529
      5 O          11.1972   -0.0950    0.0000 O.3     1  UNL1       -0.3484
      6 O           9.4651   -3.0950    0.0000 O.3     1  UNL1       -0.3853
      7 O          11.1972   -2.0950    0.0000 O.3     1  UNL1       -0.3841
      8 O           6.0010   -0.0950    0.0000 O.3     1  UNL1       -0.3841
      9 O           4.2690    0.9050    0.0000 O.3     1  UNL1       -0.3864
     10 O           4.2690    2.9050    0.0000 O.3     1  UNL1       -0.3866
     11 O           6.8671   -0.5950    0.0000 O.2     1  UNL1       -0.2456
     12 O          13.7953    4.4050    0.0000 O.3     1  UNL1       -0.5033
     13 O          12.0632    5.4050    0.0000 O.3     1  UNL1       -0.5033
     14 O           2.5369   -3.0950    0.0000 O.3     1  UNL1       -0.5033
     15 O           2.5369   -5.0950    0.0000 O.3     1  UNL1       -0.5033
     16 C           8.5991   -0.5950    0.0000 C.3     1  UNL1        0.1244
     17 C           8.5991   -1.5950    0.0000 C.3     1  UNL1        0.1598
     18 C           9.4651   -2.0950    0.0000 C.3     1  UNL1        0.1251
     19 C          10.3312   -1.5950    0.0000 C.3     1  UNL1        0.1352
     20 C          10.3312   -0.5950    0.0000 C.3     1  UNL1        0.1880
     21 C           6.8671    1.4050    0.0000 C.3     1  UNL1        0.1879
     22 C           6.0010    0.9050    0.0000 C.3     1  UNL1        0.1341
     23 C           5.1350    1.4050    0.0000 C.3     1  UNL1        0.1140
     24 C           7.7331   -0.0950    0.0000 C.3     1  UNL1        0.0806
     25 C           5.1350    2.4050    0.0000 C.3     1  UNL1        0.1095
     26 C           6.0010    2.9050    0.0000 C.3     1  UNL1        0.0873
     27 C           6.0010    3.9050    0.0000 C.3     1  UNL1       -0.0361
     28 C          11.1972    0.9050    0.0000 C.3     1  UNL1        0.0547
     29 C           6.8671   -1.5950    0.0000 C.2     1  UNL1        0.3324
     30 C          12.0632    1.4050    0.0000 C.3     1  UNL1       -0.0039
     31 C          12.0632    2.4050    0.0000 C.ar    1  UNL1       -0.0415
     32 C           6.0010   -2.0950    0.0000 C.2     1  UNL1        0.0231
     33 C          12.9292    2.9050    0.0000 C.ar    1  UNL1       -0.0133
     34 C          11.1972    2.9050    0.0000 C.ar    1  UNL1       -0.0548
     35 C           6.0010   -3.0950    0.0000 C.2     1  UNL1       -0.0477
     36 C          12.9292    3.9050    0.0000 C.ar    1  UNL1        0.1585
     37 C          11.1972    3.9050    0.0000 C.ar    1  UNL1       -0.0163
     38 C           5.1350   -3.5950    0.0000 C.ar    1  UNL1       -0.0211
     39 C          12.0632    4.4050    0.0000 C.ar    1  UNL1        0.1582
     40 C           4.2690   -3.0950    0.0000 C.ar    1  UNL1       -0.0094
     41 C           5.1350   -4.5950    0.0000 C.ar    1  UNL1       -0.0509
     42 C           3.4030   -3.5950    0.0000 C.ar    1  UNL1        0.1588
     43 C           4.2690   -5.0950    0.0000 C.ar    1  UNL1       -0.0160
     44 C           3.4030   -4.5950    0.0000 C.ar    1  UNL1        0.1582
     45 H           8.5991    0.0250    0.0000 H       1  UNL1        0.0658
     46 H           8.0622   -1.2850    0.0000 H       1  UNL1        0.0788
     47 H          10.0021   -2.4050    0.0000 H       1  UNL1        0.0659
     48 H          10.8681   -1.2850    0.0000 H       1  UNL1        0.0671
     49 H          10.3312    0.0250    0.0000 H       1  UNL1        0.0937
     50 H           6.8671    0.7850    0.0000 H       1  UNL1        0.0937
     51 H           5.4641    0.5950    0.0000 H       1  UNL1        0.0671
     52 H           4.5981    1.7150    0.0000 H       1  UNL1        0.0648
     53 H           7.1225    0.0127    0.0000 H       1  UNL1        0.0588
     54 H           7.5210   -0.6776    0.0000 H       1  UNL1        0.0588
     55 H           5.1350    3.0250    0.0000 H       1  UNL1        0.0646
     56 H           6.5380    3.2150    0.0000 H       1  UNL1        0.0621
     57 H           6.6210    3.9050    0.0000 H       1  UNL1        0.0255
     58 H           6.0010    4.5250    0.0000 H       1  UNL1        0.0255
     59 H           5.3810    3.9050    0.0000 H       1  UNL1        0.0255
     60 H          10.0021   -3.4050    0.0000 H       1  UNL1        0.2101
     61 H          11.7341   -1.7850    0.0000 H       1  UNL1        0.2101
     62 H           5.4641   -0.4050    0.0000 H       1  UNL1        0.2101
     63 H           3.7320    1.2150    0.0000 H       1  UNL1        0.2100
     64 H           4.2690    3.5250    0.0000 H       1  UNL1        0.2100
     65 H          10.9851    1.4876    0.0000 H       1  UNL1        0.0564
     66 H          10.5866    0.7973    0.0000 H       1  UNL1        0.0564
     67 H          12.2753    0.8224    0.0000 H       1  UNL1        0.0335
     68 H          12.6738    1.5127    0.0000 H       1  UNL1        0.0335
     69 H           5.4641   -1.7850    0.0000 H       1  UNL1        0.0689
     70 H          13.4662    2.5950    0.0000 H       1  UNL1        0.0658
     71 H          10.6603    2.5950    0.0000 H       1  UNL1        0.0621
     72 H           6.5380   -3.4050    0.0000 H       1  UNL1        0.0626
     73 H          10.6603    4.2150    0.0000 H       1  UNL1        0.0655
     74 H           4.2690   -2.4750    0.0000 H       1  UNL1        0.0661
     75 H           5.6720   -4.9050    0.0000 H       1  UNL1        0.0625
     76 H          14.3322    4.0950    0.0000 H       1  UNL1        0.2923
     77 H          11.5263    5.7150    0.0000 H       1  UNL1        0.2923
     78 H           4.2690   -5.7150    0.0000 H       1  UNL1        0.0655
     79 H           2.0000   -3.4050    0.0000 H       1  UNL1        0.2923
     80 H           2.5369   -5.7150    0.0000 H       1  UNL1        0.2923
@<TRIPOS>BOND
     1     1    16    1
     2     1    20    1
     3    21     2    1
     4     2    24    1
     5     3    21    1
     6     3    26    1
     7    17     4    1
     8     4    29    1
     9    20     5    1
    10     5    28    1
    11    18     6    1
    12     6    60    1
    13    19     7    1
    14     7    61    1
    15    22     8    1
    16     8    62    1
    17    23     9    1
    18     9    63    1
    19    25    10    1
    20    10    64    1
    21    11    29    2
    22    12    36    1
    23    12    76    1
    24    13    39    1
    25    13    77    1
    26    14    42    1
    27    14    79    1
    28    15    44    1
    29    15    80    1
    30    16    17    1
    31    16    24    1
    32    16    45    1
    33    17    18    1
    34    17    46    1
    35    18    19    1
    36    18    47    1
    37    19    20    1
    38    19    48    1
    39    20    49    1
    40    21    22    1
    41    21    50    1
    42    22    23    1
    43    22    51    1
    44    23    25    1
    45    23    52    1
    46    24    53    1
    47    24    54    1
    48    25    26    1
    49    25    55    1
    50    26    27    1
    51    26    56    1
    52    27    57    1
    53    27    58    1
    54    27    59    1
    55    28    30    1
    56    28    65    1
    57    28    66    1
    58    29    32    1
    59    30    31    1
    60    30    67    1
    61    30    68    1
    62    31    33   ar
    63    31    34   ar
    64    32    35    2
    65    32    69    1
    66    33    36   ar
    67    33    70    1
    68    34    37   ar
    69    34    71    1
    70    35    38    1
    71    35    72    1
    72    36    39   ar
    73    37    39   ar
    74    37    73    1
    75    38    40   ar
    76    38    41   ar
    77    40    42   ar
    78    40    74    1
    79    41    43   ar
    80    41    75    1
    81    42    44   ar
    82    43    44   ar
    83    43    78    1
