@<TRIPOS>MOLECULE
IMPHY013273
 162 170 0 0 0
SMALL
GASTEIGER

@<TRIPOS>ATOM
      1 O           5.3282    1.7718    0.0000 O.3     1  UNL1       -0.3448
      2 O           6.0010   -0.6776    0.0000 O.3     1  UNL1       -0.3481
      3 O          14.5939   -0.0535    0.0000 O.3     1  UNL1       -0.4318
      4 O          13.0972   -0.9253    0.0000 O.2     1  UNL1       -0.2501
      5 O           5.3416    3.5038    0.0000 O.3     1  UNL1       -0.3405
      6 O           4.2690   -0.6776    0.0000 O.3     1  UNL1       -0.3405
      7 O           3.3283    1.7872    0.0000 O.3     1  UNL1       -0.3841
      8 O          14.6005   -1.7855    0.0000 O.3     1  UNL1       -0.3368
      9 O           6.0010   -2.6776    0.0000 O.3     1  UNL1       -0.3841
     10 O           2.3417    3.5270    0.0000 O.3     1  UNL1       -0.3864
     11 O           3.3550    5.2512    0.0000 O.3     1  UNL1       -0.3865
     12 O          16.5938   -0.0457    0.0000 O.3     1  UNL1       -0.3829
     13 O           4.2690   -3.6776    0.0000 O.3     1  UNL1       -0.3864
     14 O           2.5369   -2.6776    0.0000 O.3     1  UNL1       -0.3865
     15 O          17.6005   -1.7739    0.0000 O.3     1  UNL1       -0.3400
     16 O           4.8616    6.1057    0.0000 O.3     1  UNL1       -0.3924
     17 O          16.6072   -3.5098    0.0000 O.3     1  UNL1       -0.3868
     18 O           2.5369    0.3224    0.0000 O.3     1  UNL1       -0.3924
     19 O          17.6072   -3.5060    0.0000 O.3     1  UNL1       -0.3405
     20 O          19.6005   -1.7662    0.0000 O.3     1  UNL1       -0.3841
     21 O          20.6072   -3.4944    0.0000 O.3     1  UNL1       -0.3864
     22 O          19.6139   -5.2303    0.0000 O.3     1  UNL1       -0.3865
     23 O          18.1172   -6.1021    0.0000 O.3     1  UNL1       -0.3924
     24 C          10.0214    0.8346    0.0000 C.3     1  UNL1       -0.0194
     25 C           8.4833    1.7226    0.0000 C.3     1  UNL1       -0.0249
     26 C           9.5247    1.7025    0.0000 C.3     1  UNL1       -0.0257
     27 C          11.0213    0.8307    0.0000 C.3     1  UNL1       -0.0051
     28 C           7.9520    0.8266    0.0000 C.3     1  UNL1       -0.0255
     29 C           9.5110   -0.0735    0.0000 C.3     1  UNL1       -0.0463
     30 C           6.8671    0.8224    0.0000 C.3     1  UNL1        0.0210
     31 C           8.4694   -0.0775    0.0000 C.3     1  UNL1       -0.0485
     32 C          11.5247    1.6948    0.0000 C.2     1  UNL1       -0.0629
     33 C           7.9663    2.6765    0.0000 C.3     1  UNL1       -0.0447
     34 C          10.0280    2.5666    0.0000 C.3     1  UNL1       -0.0306
     35 C          12.5662    1.7068    0.0000 C.3     1  UNL1       -0.0031
     36 C          11.5247   -0.0812    0.0000 C.3     1  UNL1       -0.0424
     37 C          13.0905    0.8068    0.0000 C.3     1  UNL1        0.0744
     38 C           6.3282    1.7641    0.0000 C.3     1  UNL1        0.0695
     39 C          10.1912   -0.1509    0.0000 C.3     1  UNL1       -0.0585
     40 C          12.5662   -0.0933    0.0000 C.3     1  UNL1       -0.0359
     41 C           8.9932    2.5828    0.0000 C.3     1  UNL1       -0.0590
     42 C           6.8815    2.6974    0.0000 C.3     1  UNL1       -0.0254
     43 C          11.0280    2.5628    0.0000 C.2     1  UNL1       -0.0836
     44 C          10.8439   -0.1534    0.0000 C.3     1  UNL1       -0.0553
     45 C          13.0905    2.6568    0.0000 C.3     1  UNL1       -0.0403
     46 C          14.1755    0.7942    0.0000 C.3     1  UNL1       -0.0362
     47 C           6.0010    0.3224    0.0000 C.3     1  UNL1        0.0588
     48 C          14.1755    2.6693    0.0000 C.3     1  UNL1       -0.0343
     49 C           6.8671   -0.1776    0.0000 C.3     1  UNL1       -0.0548
     50 C          14.7216    1.7318    0.0000 C.3     1  UNL1       -0.0468
     51 C          13.5939   -0.0573    0.0000 C.2     1  UNL1        0.3161
     52 C          15.0376    3.1760    0.0000 C.3     1  UNL1       -0.0598
     53 C          14.1677    3.6693    0.0000 C.3     1  UNL1       -0.0598
     54 C           4.8349    2.6417    0.0000 C.3     1  UNL1        0.1882
     55 C           5.1350   -1.1776    0.0000 C.3     1  UNL1        0.1879
     56 C           3.8349    2.6494    0.0000 C.3     1  UNL1        0.1341
     57 C          15.0972   -0.9175    0.0000 C.3     1  UNL1        0.2334
     58 C           5.1350   -2.1776    0.0000 C.3     1  UNL1        0.1341
     59 C           3.3416    3.5192    0.0000 C.3     1  UNL1        0.1141
     60 C           4.8483    4.3737    0.0000 C.3     1  UNL1        0.1130
     61 C           3.8483    4.3814    0.0000 C.3     1  UNL1        0.1119
     62 C          16.0972   -0.9137    0.0000 C.3     1  UNL1        0.1459
     63 C           4.2690   -2.6776    0.0000 C.3     1  UNL1        0.1141
     64 C           3.4030   -1.1776    0.0000 C.3     1  UNL1        0.1130
     65 C           3.4030   -2.1776    0.0000 C.3     1  UNL1        0.1119
     66 C          16.6005   -1.7778    0.0000 C.3     1  UNL1        0.1213
     67 C           5.3549    5.2358    0.0000 C.3     1  UNL1        0.0730
     68 C          15.1039   -2.6496    0.0000 C.3     1  UNL1        0.0802
     69 C          16.1039   -2.6457    0.0000 C.3     1  UNL1        0.1074
     70 C           2.5369   -0.6776    0.0000 C.3     1  UNL1        0.0730
     71 C          18.1038   -2.6380    0.0000 C.3     1  UNL1        0.1884
     72 C          19.1038   -2.6342    0.0000 C.3     1  UNL1        0.1341
     73 C          19.6072   -3.4982    0.0000 C.3     1  UNL1        0.1141
     74 C          18.1105   -4.3700    0.0000 C.3     1  UNL1        0.1130
     75 C          19.1105   -4.3662    0.0000 C.3     1  UNL1        0.1119
     76 C          17.6139   -5.2380    0.0000 C.3     1  UNL1        0.0730
     77 H          10.1447    1.7001    0.0000 H       1  UNL1        0.0315
     78 H           7.6420    0.2897    0.0000 H       1  UNL1        0.0313
     79 H           9.4073   -0.6847    0.0000 H       1  UNL1        0.0271
     80 H          10.0955   -0.2803    0.0000 H       1  UNL1        0.0271
     81 H           7.8865   -0.2888    0.0000 H       1  UNL1        0.0268
     82 H           8.5778   -0.6879    0.0000 H       1  UNL1        0.0268
     83 H           8.5539    2.8743    0.0000 H       1  UNL1        0.0271
     84 H           7.8720    3.2893    0.0000 H       1  UNL1        0.0271
     85 H          10.1380    3.1768    0.0000 H       1  UNL1        0.0310
     86 H           9.4462    2.7809    0.0000 H       1  UNL1        0.0310
     87 H          13.1862    1.7140    0.0000 H       1  UNL1        0.0357
     88 H          10.9386   -0.2835    0.0000 H       1  UNL1        0.0274
     89 H          11.6237   -0.6933    0.0000 H       1  UNL1        0.0274
     90 H           6.0234    2.3040    0.0000 H       1  UNL1        0.0603
     91 H           9.5802   -0.2562    0.0000 H       1  UNL1        0.0235
     92 H          10.2965   -0.7619    0.0000 H       1  UNL1        0.0235
     93 H          10.8022   -0.0456    0.0000 H       1  UNL1        0.0235
     94 H          12.4531   -0.7029    0.0000 H       1  UNL1        0.0276
     95 H          13.1475   -0.3091    0.0000 H       1  UNL1        0.0276
     96 H           9.5266    2.2666    0.0000 H       1  UNL1        0.0235
     97 H           9.3094    3.1161    0.0000 H       1  UNL1        0.0235
     98 H           8.4599    2.8990    0.0000 H       1  UNL1        0.0235
     99 H           6.9994    3.3061    0.0000 H       1  UNL1        0.0290
    100 H           6.3020    2.9177    0.0000 H       1  UNL1        0.0290
    101 H          11.3401    3.0985    0.0000 H       1  UNL1        0.0572
    102 H          10.2338   -0.0434    0.0000 H       1  UNL1        0.0238
    103 H          10.7339   -0.7636    0.0000 H       1  UNL1        0.0238
    104 H          11.4541   -0.2634    0.0000 H       1  UNL1        0.0238
    105 H          13.1896    3.2688    0.0000 H       1  UNL1        0.0276
    106 H          12.5045    2.8591    0.0000 H       1  UNL1        0.0276
    107 H          14.0623    0.1847    0.0000 H       1  UNL1        0.0276
    108 H          14.7567    0.5784    0.0000 H       1  UNL1        0.0276
    109 H           5.7890    0.9050    0.0000 H       1  UNL1        0.0567
    110 H           5.3905    0.2147    0.0000 H       1  UNL1        0.0567
    111 H           6.2471   -0.1776    0.0000 H       1  UNL1        0.0237
    112 H           6.8671   -0.7976    0.0000 H       1  UNL1        0.0237
    113 H           7.4871   -0.1776    0.0000 H       1  UNL1        0.0237
    114 H          15.1960    1.3326    0.0000 H       1  UNL1        0.0271
    115 H          15.1960    2.1309    0.0000 H       1  UNL1        0.0271
    116 H          15.3517    2.6414    0.0000 H       1  UNL1        0.0235
    117 H          15.5721    3.4901    0.0000 H       1  UNL1        0.0235
    118 H          14.7235    3.7105    0.0000 H       1  UNL1        0.0235
    119 H          14.7877    3.6741    0.0000 H       1  UNL1        0.0235
    120 H          14.1630    4.2893    0.0000 H       1  UNL1        0.0235
    121 H          13.5478    3.6645    0.0000 H       1  UNL1        0.0235
    122 H           4.5208    2.1072    0.0000 H       1  UNL1        0.0937
    123 H           5.1350   -0.5576    0.0000 H       1  UNL1        0.0937
    124 H           3.2150    2.6542    0.0000 H       1  UNL1        0.0671
    125 H          14.4772   -0.9199    0.0000 H       1  UNL1        0.1085
    126 H           5.1350   -2.7976    0.0000 H       1  UNL1        0.0671
    127 H           3.0358    4.0586    0.0000 H       1  UNL1        0.0648
    128 H           5.4682    4.3689    0.0000 H       1  UNL1        0.0647
    129 H           4.1624    4.9159    0.0000 H       1  UNL1        0.0647
    130 H          16.7172   -0.9113    0.0000 H       1  UNL1        0.0683
    131 H           3.7320   -2.9876    0.0000 H       1  UNL1        0.0648
    132 H           3.4030   -0.5576    0.0000 H       1  UNL1        0.0647
    133 H           3.4030   -2.7976    0.0000 H       1  UNL1        0.0647
    134 H           2.7083    1.7920    0.0000 H       1  UNL1        0.2101
    135 H          16.9126   -2.3135    0.0000 H       1  UNL1        0.0652
    136 H           5.8268    4.8337    0.0000 H       1  UNL1        0.0584
    137 H           5.8329    5.6307    0.0000 H       1  UNL1        0.0584
    138 H           6.5380   -2.3676    0.0000 H       1  UNL1        0.2101
    139 H          14.5221   -2.8639    0.0000 H       1  UNL1        0.0588
    140 H          15.2139   -3.2597    0.0000 H       1  UNL1        0.0588
    141 H          15.7959   -3.1838    0.0000 H       1  UNL1        0.0643
    142 H           2.0358    4.0663    0.0000 H       1  UNL1        0.2100
    143 H           1.9264   -0.5699    0.0000 H       1  UNL1        0.0584
    144 H           2.3249   -1.2602    0.0000 H       1  UNL1        0.0584
    145 H           2.7350    5.2560    0.0000 H       1  UNL1        0.2100
    146 H          17.2138   -0.0434    0.0000 H       1  UNL1        0.2102
    147 H           3.7320   -3.9876    0.0000 H       1  UNL1        0.2100
    148 H           2.0000   -2.3676    0.0000 H       1  UNL1        0.2100
    149 H           5.1758    6.6402    0.0000 H       1  UNL1        0.2095
    150 H          16.2993   -4.0479    0.0000 H       1  UNL1        0.2100
    151 H          17.4839   -2.6404    0.0000 H       1  UNL1        0.0938
    152 H           2.0000    0.6324    0.0000 H       1  UNL1        0.2095
    153 H          19.7238   -2.6318    0.0000 H       1  UNL1        0.0671
    154 H          19.9151   -2.9601    0.0000 H       1  UNL1        0.0648
    155 H          17.4905   -4.3724    0.0000 H       1  UNL1        0.0647
    156 H          19.7305   -4.3638    0.0000 H       1  UNL1        0.0647
    157 H          20.2205   -1.7638    0.0000 H       1  UNL1        0.2101
    158 H          17.1374   -4.8413    0.0000 H       1  UNL1        0.0584
    159 H          17.1405   -5.6384    0.0000 H       1  UNL1        0.0584
    160 H          20.9192   -4.0301    0.0000 H       1  UNL1        0.2100
    161 H          20.2338   -5.2279    0.0000 H       1  UNL1        0.2100
    162 H          17.8093   -6.6402    0.0000 H       1  UNL1        0.2095
@<TRIPOS>BOND
     1     1    38    1
     2     1    54    1
     3     2    47    1
     4     2    55    1
     5     3    51    1
     6     3    57    1
     7     4    51    2
     8     5    54    1
     9     5    60    1
    10     6    55    1
    11     6    64    1
    12     7    56    1
    13     7   134    1
    14     8    57    1
    15     8    68    1
    16     9    58    1
    17     9   138    1
    18    10    59    1
    19    10   142    1
    20    11    61    1
    21    11   145    1
    22    12    62    1
    23    12   146    1
    24    13    63    1
    25    13   147    1
    26    14    65    1
    27    14   148    1
    28    15    66    1
    29    15    71    1
    30    16    67    1
    31    16   149    1
    32    17    69    1
    33    17   150    1
    34    18    70    1
    35    18   152    1
    36    19    71    1
    37    19    74    1
    38    20    72    1
    39    20   157    1
    40    21    73    1
    41    21   160    1
    42    22    75    1
    43    22   161    1
    44    23    76    1
    45    23   162    1
    46    24    26    1
    47    24    27    1
    48    24    29    1
    49    24    39    1
    50    25    26    1
    51    25    28    1
    52    25    33    1
    53    25    41    1
    54    26    34    1
    55    26    77    1
    56    27    32    1
    57    27    36    1
    58    27    44    1
    59    28    30    1
    60    28    31    1
    61    28    78    1
    62    29    31    1
    63    29    79    1
    64    29    80    1
    65    30    38    1
    66    30    47    1
    67    30    49    1
    68    31    81    1
    69    31    82    1
    70    32    35    1
    71    32    43    2
    72    33    42    1
    73    33    83    1
    74    33    84    1
    75    34    43    1
    76    34    85    1
    77    34    86    1
    78    35    37    1
    79    35    45    1
    80    35    87    1
    81    36    40    1
    82    36    88    1
    83    36    89    1
    84    37    40    1
    85    37    46    1
    86    37    51    1
    87    38    42    1
    88    38    90    1
    89    39    91    1
    90    39    92    1
    91    39    93    1
    92    40    94    1
    93    40    95    1
    94    41    96    1
    95    41    97    1
    96    41    98    1
    97    42    99    1
    98    42   100    1
    99    43   101    1
   100    44   102    1
   101    44   103    1
   102    44   104    1
   103    45    48    1
   104    45   105    1
   105    45   106    1
   106    46    50    1
   107    46   107    1
   108    46   108    1
   109    47   109    1
   110    47   110    1
   111    48    50    1
   112    48    52    1
   113    48    53    1
   114    49   111    1
   115    49   112    1
   116    49   113    1
   117    50   114    1
   118    50   115    1
   119    52   116    1
   120    52   117    1
   121    52   118    1
   122    53   119    1
   123    53   120    1
   124    53   121    1
   125    54    56    1
   126    54   122    1
   127    55    58    1
   128    55   123    1
   129    56    59    1
   130    56   124    1
   131    57    62    1
   132    57   125    1
   133    58    63    1
   134    58   126    1
   135    59    61    1
   136    59   127    1
   137    60    61    1
   138    60    67    1
   139    60   128    1
   140    61   129    1
   141    62    66    1
   142    62   130    1
   143    63    65    1
   144    63   131    1
   145    64    65    1
   146    64    70    1
   147    64   132    1
   148    65   133    1
   149    66    69    1
   150    66   135    1
   151    67   136    1
   152    67   137    1
   153    68    69    1
   154    68   139    1
   155    68   140    1
   156    69   141    1
   157    70   143    1
   158    70   144    1
   159    71    72    1
   160    71   151    1
   161    72    73    1
   162    72   153    1
   163    73    75    1
   164    73   154    1
   165    74    75    1
   166    74    76    1
   167    74   155    1
   168    75   156    1
   169    76   158    1
   170    76   159    1
