@<TRIPOS>MOLECULE
IMPHY001398
 202 212 0 0 0
SMALL
GASTEIGER

@<TRIPOS>ATOM
      1 O           6.8671   -7.1490    0.0000 O.3     1  UNL1       -0.3428
      2 O           5.0597   -6.0962    0.0000 O.3     1  UNL1       -0.3881
      3 O           8.2616   -1.3752    0.0000 O.3     1  UNL1       -0.3941
      4 O          12.2663    0.0070    0.0000 O.3     1  UNL1       -0.4318
      5 O           4.4556   -3.6289    0.0000 O.3     1  UNL1       -0.4802
      6 O           4.0686   -4.9891    0.0000 O.2     1  UNL1       -0.2503
      7 O          10.5345    0.0404    0.0000 O.2     1  UNL1       -0.2501
      8 O           5.1350   -7.1490    0.0000 O.3     1  UNL1       -0.3405
      9 O          13.1610    1.4901    0.0000 O.3     1  UNL1       -0.3327
     10 O           6.8671   -9.1490    0.0000 O.3     1  UNL1       -0.3841
     11 O           5.1350  -10.1490    0.0000 O.3     1  UNL1       -0.3864
     12 O          10.5538    1.0402    0.0000 O.3     1  UNL1       -0.3365
     13 O           3.4030   -9.1490    0.0000 O.3     1  UNL1       -0.3865
     14 O          10.5923    3.0398    0.0000 O.3     1  UNL1       -0.3852
     15 O          12.3433    4.0063    0.0000 O.3     1  UNL1       -0.4529
     16 O           2.5369   -7.6490    0.0000 O.3     1  UNL1       -0.3924
     17 O           9.7169    2.5566    0.0000 O.3     1  UNL1       -0.3431
     18 O           8.8028    0.0738    0.0000 O.3     1  UNL1       -0.3841
     19 O           7.0903    1.1070    0.0000 O.3     1  UNL1       -0.3864
     20 O           7.1289    3.1066    0.0000 O.3     1  UNL1       -0.3402
     21 O          14.0751    3.9729    0.0000 O.2     1  UNL1       -0.2456
     22 O           8.0237    4.5896    0.0000 O.3     1  UNL1       -0.3460
     23 O           5.4164    4.1398    0.0000 O.3     1  UNL1       -0.3841
     24 O           5.4550    6.1394    0.0000 O.3     1  UNL1       -0.3864
     25 O           7.2060    7.1059    0.0000 O.3     1  UNL1       -0.3405
     26 O           5.4742    7.1392    0.0000 O.3     1  UNL1       -0.3405
     27 O          14.1907    9.9718    0.0000 O.3     1  UNL1       -0.4951
     28 O           7.2445    9.1055    0.0000 O.3     1  UNL1       -0.3841
     29 O           5.5321   10.1387    0.0000 O.3     1  UNL1       -0.3864
     30 O           3.7811    9.1722    0.0000 O.3     1  UNL1       -0.3865
     31 O           3.7232    6.1728    0.0000 O.3     1  UNL1       -0.3924
     32 C           8.7037   -2.9937    0.0000 C.3     1  UNL1       -0.0170
     33 C           8.6921   -3.9936    0.0000 C.3     1  UNL1       -0.0256
     34 C           7.7920   -4.5179    0.0000 C.3     1  UNL1       -0.0221
     35 C           9.5754   -2.5038    0.0000 C.3     1  UNL1        0.0208
     36 C           6.8920   -3.9936    0.0000 C.3     1  UNL1       -0.0173
     37 C           7.8160   -2.4488    0.0000 C.3     1  UNL1       -0.0462
     38 C          10.4356   -3.0137    0.0000 C.2     1  UNL1       -0.0604
     39 C           6.9040   -2.9521    0.0000 C.3     1  UNL1       -0.0481
     40 C           5.9421   -4.5179    0.0000 C.3     1  UNL1        0.0962
     41 C          11.3514   -2.5175    0.0000 C.3     1  UNL1       -0.0031
     42 C           9.5523   -4.5036    0.0000 C.3     1  UNL1       -0.0306
     43 C           7.8046   -5.6028    0.0000 C.3     1  UNL1       -0.0180
     44 C           9.5714   -1.4621    0.0000 C.3     1  UNL1       -0.0400
     45 C          11.3715   -1.4760    0.0000 C.3     1  UNL1        0.0744
     46 C           9.0565   -2.0580    0.0000 C.3     1  UNL1       -0.0584
     47 C          10.4755   -0.9448    0.0000 C.3     1  UNL1       -0.0358
     48 C           6.8671   -6.1490    0.0000 C.3     1  UNL1        0.0891
     49 C           5.9295   -5.6028    0.0000 C.3     1  UNL1        0.0971
     50 C          10.4241   -4.0137    0.0000 C.2     1  UNL1       -0.0836
     51 C           8.6561   -5.0213    0.0000 C.3     1  UNL1       -0.0589
     52 C           8.5927   -2.3187    0.0000 C.3     1  UNL1        0.0540
     53 C          12.2717   -3.0922    0.0000 C.3     1  UNL1       -0.0403
     54 C          12.3132   -0.9371    0.0000 C.3     1  UNL1       -0.0362
     55 C          13.2256   -2.5753    0.0000 C.3     1  UNL1       -0.0343
     56 C          13.2465   -1.4905    0.0000 C.3     1  UNL1       -0.0468
     57 C           5.4555   -3.6443    0.0000 C.3     1  UNL1       -0.0466
     58 C           4.9422   -4.5025    0.0000 C.2     1  UNL1        0.3135
     59 C          11.3908   -0.4762    0.0000 C.2     1  UNL1        0.3161
     60 C          14.2253   -2.5984    0.0000 C.3     1  UNL1       -0.0598
     61 C          13.7054   -3.4526    0.0000 C.3     1  UNL1       -0.0598
     62 C           6.0010   -7.6490    0.0000 C.3     1  UNL1        0.1883
     63 C           6.0010   -8.6490    0.0000 C.3     1  UNL1        0.1341
     64 C          12.2855    1.0068    0.0000 C.3     1  UNL1        0.2341
     65 C           5.1350   -9.1490    0.0000 C.3     1  UNL1        0.1141
     66 C           4.2690   -7.6490    0.0000 C.3     1  UNL1        0.1130
     67 C          11.4293    1.5234    0.0000 C.3     1  UNL1        0.1531
     68 C           4.2690   -8.6490    0.0000 C.3     1  UNL1        0.1119
     69 C          11.4486    2.5232    0.0000 C.3     1  UNL1        0.1265
     70 C          13.1803    2.4899    0.0000 C.3     1  UNL1        0.0994
     71 C          12.3241    3.0065    0.0000 C.3     1  UNL1        0.1575
     72 C           3.4030   -7.1490    0.0000 C.3     1  UNL1        0.0730
     73 C          14.0558    2.9731    0.0000 C.3     1  UNL1       -0.0350
     74 C           9.6976    1.5568    0.0000 C.3     1  UNL1        0.1885
     75 C           8.8221    1.0736    0.0000 C.3     1  UNL1        0.1341
     76 C           7.9658    1.5902    0.0000 C.3     1  UNL1        0.1143
     77 C          13.2188    4.4895    0.0000 C.2     1  UNL1        0.3324
     78 C           8.8606    3.0732    0.0000 C.3     1  UNL1        0.0877
     79 C           7.9851    2.5900    0.0000 C.3     1  UNL1        0.1160
     80 C           8.8799    4.0730    0.0000 C.3     1  UNL1       -0.0361
     81 C          13.2381    5.4893    0.0000 C.2     1  UNL1        0.0231
     82 C           7.1482    4.1064    0.0000 C.3     1  UNL1        0.1880
     83 C          14.1136    5.9725    0.0000 C.2     1  UNL1       -0.0478
     84 C           6.2919    4.6230    0.0000 C.3     1  UNL1        0.1341
     85 C          14.1329    6.9723    0.0000 C.ar    1  UNL1       -0.0246
     86 C           6.3112    5.6228    0.0000 C.3     1  UNL1        0.1141
     87 C           8.0429    5.5894    0.0000 C.3     1  UNL1        0.0796
     88 C           7.1867    6.1060    0.0000 C.3     1  UNL1        0.1134
     89 C          15.0084    7.4556    0.0000 C.ar    1  UNL1       -0.0511
     90 C          13.2767    7.4889    0.0000 C.ar    1  UNL1       -0.0511
     91 C          15.0277    8.4554    0.0000 C.ar    1  UNL1       -0.0194
     92 C          13.2959    8.4888    0.0000 C.ar    1  UNL1       -0.0194
     93 C           6.3497    7.6224    0.0000 C.3     1  UNL1        0.1884
     94 C          14.1714    8.9720    0.0000 C.ar    1  UNL1        0.1201
     95 C           6.3690    8.6223    0.0000 C.3     1  UNL1        0.1341
     96 C           5.5128    9.1389    0.0000 C.3     1  UNL1        0.1141
     97 C           4.6180    7.6558    0.0000 C.3     1  UNL1        0.1130
     98 C           4.6373    8.6556    0.0000 C.3     1  UNL1        0.1119
     99 C           3.7425    7.1726    0.0000 C.3     1  UNL1        0.0730
    100 C          15.0662   10.4550    0.0000 C.3     1  UNL1        0.0788
    101 H           9.4331   -3.5772    0.0000 H       1  UNL1        0.0315
    102 H           6.1625   -3.5573    0.0000 H       1  UNL1        0.0317
    103 H           8.2260   -1.9837    0.0000 H       1  UNL1        0.0271
    104 H           7.4279   -1.9652    0.0000 H       1  UNL1        0.0271
    105 H           6.7017   -2.3660    0.0000 H       1  UNL1        0.0269
    106 H           6.2920   -3.0511    0.0000 H       1  UNL1        0.0269
    107 H          11.3252   -3.3670    0.0000 H       1  UNL1        0.0357
    108 H           9.1483   -4.9739    0.0000 H       1  UNL1        0.0310
    109 H           9.9453   -4.9832    0.0000 H       1  UNL1        0.0310
    110 H           8.0204   -6.1841    0.0000 H       1  UNL1        0.0296
    111 H           8.4142   -5.4897    0.0000 H       1  UNL1        0.0296
    112 H           9.3601   -0.8793    0.0000 H       1  UNL1        0.0275
    113 H           8.9610   -1.5706    0.0000 H       1  UNL1        0.0275
    114 H           9.6367   -2.2768    0.0000 H       1  UNL1        0.0235
    115 H           9.2753   -1.4779    0.0000 H       1  UNL1        0.0235
    116 H           8.4764   -1.8393    0.0000 H       1  UNL1        0.0235
    117 H          10.8783   -0.4735    0.0000 H       1  UNL1        0.0276
    118 H          10.0800   -0.4673    0.0000 H       1  UNL1        0.0276
    119 H           7.4046   -6.4579    0.0000 H       1  UNL1        0.0623
    120 H           5.9259   -6.2228    0.0000 H       1  UNL1        0.0630
    121 H          10.9574   -4.3299    0.0000 H       1  UNL1        0.0572
    122 H           8.3441   -5.5570    0.0000 H       1  UNL1        0.0235
    123 H           9.1919   -5.3333    0.0000 H       1  UNL1        0.0235
    124 H           8.9682   -4.4855    0.0000 H       1  UNL1        0.0235
    125 H           7.9809   -2.4193    0.0000 H       1  UNL1        0.0566
    126 H           8.5855   -2.9387    0.0000 H       1  UNL1        0.0566
    127 H          11.8581   -3.5541    0.0000 H       1  UNL1        0.0276
    128 H          12.6560   -3.5787    0.0000 H       1  UNL1        0.0276
    129 H          12.7160   -0.4658    0.0000 H       1  UNL1        0.0276
    130 H          11.9177   -0.4596    0.0000 H       1  UNL1        0.0276
    131 H          13.8552   -1.6083    0.0000 H       1  UNL1        0.0271
    132 H          13.4668   -0.9109    0.0000 H       1  UNL1        0.0271
    133 H           5.9971   -3.3426    0.0000 H       1  UNL1        0.0241
    134 H           5.1538   -3.1026    0.0000 H       1  UNL1        0.0241
    135 H           4.9138   -3.9460    0.0000 H       1  UNL1        0.0241
    136 H          14.2110   -3.2182    0.0000 H       1  UNL1        0.0235
    137 H          14.8452   -2.6127    0.0000 H       1  UNL1        0.0235
    138 H          14.2397   -1.9786    0.0000 H       1  UNL1        0.0235
    139 H          13.1615   -3.7501    0.0000 H       1  UNL1        0.0235
    140 H          14.0029   -3.9966    0.0000 H       1  UNL1        0.0235
    141 H          14.2494   -3.1551    0.0000 H       1  UNL1        0.0235
    142 H           4.4397   -6.0914    0.0000 H       1  UNL1        0.2099
    143 H           7.6523   -1.2604    0.0000 H       1  UNL1        0.2094
    144 H           6.0010   -7.0290    0.0000 H       1  UNL1        0.0938
    145 H           3.8357   -3.6193    0.0000 H       1  UNL1        0.2951
    146 H           6.0010   -9.2690    0.0000 H       1  UNL1        0.0671
    147 H          11.7427    0.7072    0.0000 H       1  UNL1        0.1085
    148 H           4.5981   -9.4590    0.0000 H       1  UNL1        0.0648
    149 H           4.2690   -7.0290    0.0000 H       1  UNL1        0.0647
    150 H          10.8984    1.8437    0.0000 H       1  UNL1        0.0687
    151 H           3.7320   -8.3390    0.0000 H       1  UNL1        0.0647
    152 H          11.4605    3.1431    0.0000 H       1  UNL1        0.0659
    153 H           6.8671   -9.7690    0.0000 H       1  UNL1        0.2101
    154 H          13.7112    2.1696    0.0000 H       1  UNL1        0.0632
    155 H          12.8669    3.3061    0.0000 H       1  UNL1        0.0787
    156 H           3.8015   -6.6740    0.0000 H       1  UNL1        0.0584
    157 H           3.0044   -6.6740    0.0000 H       1  UNL1        0.0584
    158 H           4.5981  -10.4590    0.0000 H       1  UNL1        0.2100
    159 H           3.4030   -9.7690    0.0000 H       1  UNL1        0.2100
    160 H          14.3554    2.4303    0.0000 H       1  UNL1        0.0256
    161 H          14.5986    3.2727    0.0000 H       1  UNL1        0.0256
    162 H          13.7562    3.5159    0.0000 H       1  UNL1        0.0256
    163 H           9.6856    0.9369    0.0000 H       1  UNL1        0.0938
    164 H          10.6043    3.6597    0.0000 H       1  UNL1        0.2101
    165 H           2.0000   -7.3390    0.0000 H       1  UNL1        0.2095
    166 H           8.2793    0.7740    0.0000 H       1  UNL1        0.0671
    167 H           7.4350    1.9105    0.0000 H       1  UNL1        0.0648
    168 H           9.4034    3.3728    0.0000 H       1  UNL1        0.0621
    169 H           7.9971    3.2099    0.0000 H       1  UNL1        0.0650
    170 H           9.3337   -0.2465    0.0000 H       1  UNL1        0.2101
    171 H           9.4998    4.0611    0.0000 H       1  UNL1        0.0255
    172 H           8.8918    4.6929    0.0000 H       1  UNL1        0.0255
    173 H           8.2600    4.0850    0.0000 H       1  UNL1        0.0255
    174 H          12.7073    5.8096    0.0000 H       1  UNL1        0.0689
    175 H           6.5595    1.4273    0.0000 H       1  UNL1        0.2100
    176 H           6.6054    3.8068    0.0000 H       1  UNL1        0.0937
    177 H          14.6445    5.6522    0.0000 H       1  UNL1        0.0626
    178 H           5.7611    4.9433    0.0000 H       1  UNL1        0.0671
    179 H           6.3232    6.2427    0.0000 H       1  UNL1        0.0648
    180 H           8.6513    5.4700    0.0000 H       1  UNL1        0.0587
    181 H           8.2662    6.1679    0.0000 H       1  UNL1        0.0587
    182 H           7.7295    6.4056    0.0000 H       1  UNL1        0.0647
    183 H           4.8856    4.4601    0.0000 H       1  UNL1        0.2101
    184 H          15.5393    7.1353    0.0000 H       1  UNL1        0.0625
    185 H          12.7339    7.1893    0.0000 H       1  UNL1        0.0625
    186 H           4.9122    5.8398    0.0000 H       1  UNL1        0.2100
    187 H          15.5705    8.7550    0.0000 H       1  UNL1        0.0654
    188 H          12.7651    8.8090    0.0000 H       1  UNL1        0.0654
    189 H           6.8926    7.9220    0.0000 H       1  UNL1        0.0938
    190 H           6.3810    9.2422    0.0000 H       1  UNL1        0.0671
    191 H           4.9819    9.4592    0.0000 H       1  UNL1        0.0648
    192 H           4.6061    7.0360    0.0000 H       1  UNL1        0.0647
    193 H           4.0945    8.3560    0.0000 H       1  UNL1        0.0647
    194 H           7.2565    9.7254    0.0000 H       1  UNL1        0.2101
    195 H           3.5417    7.7592    0.0000 H       1  UNL1        0.0584
    196 H           3.1300    7.0767    0.0000 H       1  UNL1        0.0584
    197 H          15.3658    9.9122    0.0000 H       1  UNL1        0.0660
    198 H          15.6090   10.7546    0.0000 H       1  UNL1        0.0660
    199 H          14.7666   10.9978    0.0000 H       1  UNL1        0.0660
    200 H           5.0012   10.4590    0.0000 H       1  UNL1        0.2100
    201 H           3.2382    8.8726    0.0000 H       1  UNL1        0.2100
    202 H           3.1804    5.8732    0.0000 H       1  UNL1        0.2095
@<TRIPOS>BOND
     1    48     1    1
     2    62     1    1
     3    49     2    1
     4     2   142    1
     5     3    52    1
     6     3   143    1
     7     4    59    1
     8    64     4    1
     9     5    58    1
    10     5   145    1
    11     6    58    2
    12     7    59    2
    13     8    62    1
    14     8    66    1
    15     9    64    1
    16     9    70    1
    17    63    10    1
    18    10   153    1
    19    65    11    1
    20    11   158    1
    21    67    12    1
    22    74    12    1
    23    68    13    1
    24    13   159    1
    25    69    14    1
    26    14   164    1
    27    71    15    1
    28    15    77    1
    29    16    72    1
    30    16   165    1
    31    17    74    1
    32    17    78    1
    33    75    18    1
    34    18   170    1
    35    76    19    1
    36    19   175    1
    37    79    20    1
    38    82    20    1
    39    21    77    2
    40    22    82    1
    41    22    87    1
    42    84    23    1
    43    23   183    1
    44    86    24    1
    45    24   186    1
    46    88    25    1
    47    93    25    1
    48    26    93    1
    49    26    97    1
    50    27    94    1
    51    27   100    1
    52    95    28    1
    53    28   194    1
    54    96    29    1
    55    29   200    1
    56    98    30    1
    57    30   201    1
    58    31    99    1
    59    31   202    1
    60    32    33    1
    61    32    35    1
    62    32    37    1
    63    32    46    1
    64    33    34    1
    65    33    42    1
    66    33   101    1
    67    34    36    1
    68    34    43    1
    69    34    51    1
    70    35    38    1
    71    35    44    1
    72    35    52    1
    73    36    39    1
    74    36    40    1
    75    36   102    1
    76    37    39    1
    77    37   103    1
    78    37   104    1
    79    38    41    1
    80    38    50    2
    81    39   105    1
    82    39   106    1
    83    40    49    1
    84    40    57    1
    85    40    58    1
    86    41    45    1
    87    41    53    1
    88    41   107    1
    89    42    50    1
    90    42   108    1
    91    42   109    1
    92    43    48    1
    93    43   110    1
    94    43   111    1
    95    44    47    1
    96    44   112    1
    97    44   113    1
    98    45    47    1
    99    45    54    1
   100    45    59    1
   101    46   114    1
   102    46   115    1
   103    46   116    1
   104    47   117    1
   105    47   118    1
   106    48    49    1
   107    48   119    1
   108    49   120    1
   109    50   121    1
   110    51   122    1
   111    51   123    1
   112    51   124    1
   113    52   125    1
   114    52   126    1
   115    53    55    1
   116    53   127    1
   117    53   128    1
   118    54    56    1
   119    54   129    1
   120    54   130    1
   121    55    56    1
   122    55    60    1
   123    55    61    1
   124    56   131    1
   125    56   132    1
   126    57   133    1
   127    57   134    1
   128    57   135    1
   129    60   136    1
   130    60   137    1
   131    60   138    1
   132    61   139    1
   133    61   140    1
   134    61   141    1
   135    62    63    1
   136    62   144    1
   137    63    65    1
   138    63   146    1
   139    64    67    1
   140    64   147    1
   141    65    68    1
   142    65   148    1
   143    66    68    1
   144    66    72    1
   145    66   149    1
   146    67    69    1
   147    67   150    1
   148    68   151    1
   149    69    71    1
   150    69   152    1
   151    70    71    1
   152    70    73    1
   153    70   154    1
   154    71   155    1
   155    72   156    1
   156    72   157    1
   157    73   160    1
   158    73   161    1
   159    73   162    1
   160    74    75    1
   161    74   163    1
   162    75    76    1
   163    75   166    1
   164    76    79    1
   165    76   167    1
   166    77    81    1
   167    78    79    1
   168    78    80    1
   169    78   168    1
   170    79   169    1
   171    80   171    1
   172    80   172    1
   173    80   173    1
   174    81    83    2
   175    81   174    1
   176    82    84    1
   177    82   176    1
   178    83    85    1
   179    83   177    1
   180    84    86    1
   181    84   178    1
   182    85    89   ar
   183    85    90   ar
   184    86    88    1
   185    86   179    1
   186    87    88    1
   187    87   180    1
   188    87   181    1
   189    88   182    1
   190    89    91   ar
   191    89   184    1
   192    90    92   ar
   193    90   185    1
   194    91    94   ar
   195    91   187    1
   196    92    94   ar
   197    92   188    1
   198    93    95    1
   199    93   189    1
   200    95    96    1
   201    95   190    1
   202    96    98    1
   203    96   191    1
   204    97    98    1
   205    97    99    1
   206    97   192    1
   207    98   193    1
   208    99   195    1
   209    99   196    1
   210   100   197    1
   211   100   198    1
   212   100   199    1
