@<TRIPOS>MOLECULE
IMPHY011032
 30 30 0 0 0
SMALL
GASTEIGER

@<TRIPOS>ATOM
      1 O           3.7320    1.2500    0.0000 O.3     1  UNL1       -0.4641
      2 O           5.4641    1.2500    0.0000 O.2     1  UNL1       -0.2506
      3 C           4.5981    2.7500    0.0000 C.3     1  UNL1        0.0508
      4 C           2.8660   -0.2500    0.0000 C.3     1  UNL1        0.0067
      5 C           3.7320    0.2500    0.0000 C.3     1  UNL1        0.0964
      6 C           2.8660   -1.2500    0.0000 C.ar    1  UNL1       -0.0442
      7 C           4.5981    1.7500    0.0000 C.2     1  UNL1        0.3097
      8 C           5.4641    3.2500    0.0000 C.3     1  UNL1       -0.0525
      9 C           3.7320    3.2500    0.0000 C.3     1  UNL1       -0.0525
     10 C           2.0000   -1.7500    0.0000 C.ar    1  UNL1       -0.0585
     11 C           3.7320   -1.7500    0.0000 C.ar    1  UNL1       -0.0585
     12 C           2.0000   -2.7500    0.0000 C.ar    1  UNL1       -0.0615
     13 C           3.7320   -2.7500    0.0000 C.ar    1  UNL1       -0.0615
     14 C           2.8660   -3.2500    0.0000 C.ar    1  UNL1       -0.0617
     15 H           4.5981    3.3700    0.0000 H       1  UNL1        0.0408
     16 H           2.6540    0.3326    0.0000 H       1  UNL1        0.0346
     17 H           2.2554   -0.3577    0.0000 H       1  UNL1        0.0346
     18 H           3.9441   -0.3326    0.0000 H       1  UNL1        0.0701
     19 H           4.3426    0.3577    0.0000 H       1  UNL1        0.0701
     20 H           5.7741    2.7131    0.0000 H       1  UNL1        0.0237
     21 H           6.0010    3.5600    0.0000 H       1  UNL1        0.0237
     22 H           4.0420    3.7869    0.0000 H       1  UNL1        0.0237
     23 H           3.1951    3.5600    0.0000 H       1  UNL1        0.0237
     24 H           3.4220    2.7131    0.0000 H       1  UNL1        0.0237
     25 H           5.1541    3.7869    0.0000 H       1  UNL1        0.0237
     26 H           1.4631   -1.4400    0.0000 H       1  UNL1        0.0620
     27 H           4.2690   -1.4400    0.0000 H       1  UNL1        0.0620
     28 H           1.4631   -3.0600    0.0000 H       1  UNL1        0.0618
     29 H           4.2690   -3.0600    0.0000 H       1  UNL1        0.0618
     30 H           2.8660   -3.8700    0.0000 H       1  UNL1        0.0618
@<TRIPOS>BOND
     1     1     5    1
     2     1     7    1
     3     2     7    2
     4     3     7    1
     5     3     8    1
     6     3     9    1
     7     3    15    1
     8     4     5    1
     9     4     6    1
    10     4    16    1
    11     4    17    1
    12     5    18    1
    13     5    19    1
    14     6    10   ar
    15     6    11   ar
    16     8    20    1
    17     8    21    1
    18     8    25    1
    19     9    22    1
    20     9    23    1
    21     9    24    1
    22    10    12   ar
    23    10    26    1
    24    11    13   ar
    25    11    27    1
    26    12    14   ar
    27    12    28    1
    28    13    14   ar
    29    13    29    1
    30    14    30    1
