@<TRIPOS>MOLECULE
IMPHY000847
 123 132 0 0 0
SMALL
GASTEIGER

@<TRIPOS>ATOM
      1 O           6.8740   -5.1115    0.0000 O.3     1  UNL1       -0.4570
      2 O           8.1415   -3.1568    0.0000 O.3     1  UNL1       -0.3733
      3 O           9.6205    3.8264    0.0000 O.3     1  UNL1       -0.3631
      4 O           8.8846   -3.8259    0.0000 O.3     1  UNL1       -0.4658
      5 O           8.6767   -4.8040    0.0000 O.2     1  UNL1       -0.2474
      6 O           8.2439    1.3335    0.0000 O.3     1  UNL1       -0.4947
      7 O           6.5925    0.0206    0.0000 O.3     1  UNL1       -0.4670
      8 O           8.1611   -6.2704    0.0000 O.2     1  UNL1       -0.2512
      9 O           5.3077    0.0655    0.0000 O.2     1  UNL1       -0.2494
     10 O           4.1232    5.1394    0.0000 O.2     1  UNL1       -0.2976
     11 N           4.4475   -2.8828    0.0000 N.3     1  UNL1       -0.2939
     12 N           7.5270   -1.8822    0.0000 N.pl3   1  UNL1       -0.3252
     13 N           7.0566    4.4815    0.0000 N.3     1  UNL1       -0.2955
     14 N           4.6919    1.4176    0.0000 N.ar    1  UNL1       -0.3565
     15 C           5.9873   -2.3825    0.0000 C.3     1  UNL1        0.0369
     16 C           5.3618   -3.0771    0.0000 C.3     1  UNL1        0.0348
     17 C           6.9016   -2.5768    0.0000 C.3     1  UNL1        0.0772
     18 C           5.6507   -3.9661    0.0000 C.3     1  UNL1        0.0453
     19 C           7.1904   -3.4658    0.0000 C.3     1  UNL1        0.2195
     20 C           5.6022   -1.3469    0.0000 C.3     1  UNL1       -0.0272
     21 C           6.5650   -4.1604    0.0000 C.3     1  UNL1        0.1542
     22 C           6.3239   -0.7989    0.0000 C.ar    1  UNL1       -0.0162
     23 C           4.1587   -1.9938    0.0000 C.3     1  UNL1        0.0005
     24 C           5.9597   -4.9171    0.0000 C.3     1  UNL1       -0.0418
     25 C           7.2382   -0.9932    0.0000 C.ar    1  UNL1        0.0372
     26 C           5.0252   -4.6607    0.0000 C.2     1  UNL1       -0.0755
     27 C           3.8221   -3.5774    0.0000 C.3     1  UNL1        0.0175
     28 C           6.0350    0.0901    0.0000 C.ar    1  UNL1       -0.0481
     29 C           4.1109   -4.4664    0.0000 C.2     1  UNL1       -0.0733
     30 C           7.9335   -4.1349    0.0000 C.2     1  UNL1        0.3446
     31 C           8.4781   -1.5732    0.0000 C.3     1  UNL1        0.0011
     32 C           8.7255    3.3793    0.0000 C.3     1  UNL1        0.0936
     33 C           8.7855    4.3775    0.0000 C.3     1  UNL1        0.1086
     34 C           6.6605    0.7847    0.0000 C.ar    1  UNL1        0.0172
     35 C           7.8636   -0.2986    0.0000 C.ar    1  UNL1        0.0017
     36 C           7.8310    2.9322    0.0000 C.3     1  UNL1        0.0025
     37 C           6.3515    1.7358    0.0000 C.3     1  UNL1        0.1361
     38 C           5.2906   -5.6603    0.0000 C.3     1  UNL1       -0.0643
     39 C           7.3147    2.0577    0.0000 C.3     1  UNL1       -0.0210
     40 C           7.5748    0.5904    0.0000 C.ar    1  UNL1        0.1265
     41 C           7.9511    4.9286    0.0000 C.3     1  UNL1        0.0308
     42 C           6.9966    3.4833    0.0000 C.3     1  UNL1        0.0046
     43 C           8.8456    5.3757    0.0000 C.3     1  UNL1       -0.0229
     44 C           5.4130    2.1241    0.0000 C.ar    1  UNL1        0.0418
     45 C           6.0472    4.5934    0.0000 C.3     1  UNL1        0.0212
     46 C           7.1830   -6.0625    0.0000 C.2     1  UNL1        0.3043
     47 C           5.9768    0.8086    0.0000 C.2     1  UNL1        0.3235
     48 C           4.9590    3.0325    0.0000 C.ar    1  UNL1       -0.0162
     49 C           5.2116    4.0162    0.0000 C.3     1  UNL1       -0.0093
     50 C           9.7400    5.8228    0.0000 C.3     1  UNL1       -0.0625
     51 C           5.8026    5.5630    0.0000 C.3     1  UNL1        0.0215
     52 C           6.5139   -6.8057    0.0000 C.3     1  UNL1        0.0332
     53 C           9.6278   -4.4950    0.0000 C.3     1  UNL1        0.0818
     54 C           3.9610    2.8797    0.0000 C.ar    1  UNL1        0.0032
     55 C           3.7963    1.8836    0.0000 C.ar    1  UNL1        0.0470
     56 C           9.2220    1.1256    0.0000 C.3     1  UNL1        0.0788
     57 C           4.8406    5.8360    0.0000 C.2     1  UNL1        0.1318
     58 C           3.1587    3.5595    0.0000 C.ar    1  UNL1       -0.0523
     59 C           2.8178    1.4984    0.0000 C.ar    1  UNL1       -0.0378
     60 C           7.7313    0.1806    0.0000 C.3     1  UNL1        0.0817
     61 C           2.1716    3.1970    0.0000 C.ar    1  UNL1       -0.0611
     62 C           2.0000    2.1595    0.0000 C.ar    1  UNL1       -0.0598
     63 C           4.5961    6.8057    0.0000 C.3     1  UNL1       -0.0060
     64 H           4.9470   -3.5379    0.0000 H       1  UNL1        0.0482
     65 H           7.5080   -2.7057    0.0000 H       1  UNL1        0.0544
     66 H           6.1785   -1.1182    0.0000 H       1  UNL1        0.0287
     67 H           5.3610   -0.7757    0.0000 H       1  UNL1        0.0287
     68 H           7.1714   -4.2893    0.0000 H       1  UNL1        0.0779
     69 H           3.9255   -1.4193    0.0000 H       1  UNL1        0.0427
     70 H           3.5762   -2.2064    0.0000 H       1  UNL1        0.0427
     71 H           6.3414   -5.4057    0.0000 H       1  UNL1        0.0273
     72 H           6.5071   -4.6261    0.0000 H       1  UNL1        0.0273
     73 H           5.2168   -5.2504    0.0000 H       1  UNL1        0.0577
     74 H           3.4404   -3.0888    0.0000 H       1  UNL1        0.0470
     75 H           3.2747   -3.8685    0.0000 H       1  UNL1        0.0470
     76 H           5.4286    0.2190    0.0000 H       1  UNL1        0.0625
     77 H           3.6961   -4.9271    0.0000 H       1  UNL1        0.0582
     78 H           8.5563   -2.6960    0.0000 H       1  UNL1        0.2111
     79 H           8.6697   -2.1628    0.0000 H       1  UNL1        0.0428
     80 H           9.0677   -1.3816    0.0000 H       1  UNL1        0.0428
     81 H           8.2865   -0.9835    0.0000 H       1  UNL1        0.0428
     82 H           9.0026    2.8247    0.0000 H       1  UNL1        0.0629
     83 H           8.4701   -0.4275    0.0000 H       1  UNL1        0.0673
     84 H           8.2538    2.4788    0.0000 H       1  UNL1        0.0340
     85 H           4.8298   -5.2454    0.0000 H       1  UNL1        0.0230
     86 H           4.8757   -6.1210    0.0000 H       1  UNL1        0.0230
     87 H           5.7513   -6.0752    0.0000 H       1  UNL1        0.0230
     88 H           7.3378    1.4381    0.0000 H       1  UNL1        0.0287
     89 H           7.9157    1.9055    0.0000 H       1  UNL1        0.0287
     90 H           8.3774    5.3788    0.0000 H       1  UNL1        0.0456
     91 H           7.5818    5.4266    0.0000 H       1  UNL1        0.0456
     92 H           6.3935    3.6274    0.0000 H       1  UNL1        0.0430
     93 H           6.7499    2.9145    0.0000 H       1  UNL1        0.0430
     94 H           8.6689    5.9700    0.0000 H       1  UNL1        0.0292
     95 H           8.2296    5.3049    0.0000 H       1  UNL1        0.0292
     96 H           6.4546    5.0607    0.0000 H       1  UNL1        0.0470
     97 H           5.0170    4.6048    0.0000 H       1  UNL1        0.0329
     98 H           4.5920    3.9951    0.0000 H       1  UNL1        0.0329
     99 H          10.0172    5.2682    0.0000 H       1  UNL1        0.0231
    100 H          10.2946    6.1000    0.0000 H       1  UNL1        0.0231
    101 H           9.4628    6.3774    0.0000 H       1  UNL1        0.0231
    102 H           4.3675    0.8892    0.0000 H       1  UNL1        0.1656
    103 H           6.4210    5.6079    0.0000 H       1  UNL1        0.0357
    104 H           5.8658    6.1798    0.0000 H       1  UNL1        0.0357
    105 H           6.0531   -6.3908    0.0000 H       1  UNL1        0.0342
    106 H           6.0990   -7.2664    0.0000 H       1  UNL1        0.0342
    107 H           6.9746   -7.2205    0.0000 H       1  UNL1        0.0342
    108 H           9.2129   -4.9558    0.0000 H       1  UNL1        0.0661
    109 H          10.0885   -4.9099    0.0000 H       1  UNL1        0.0661
    110 H          10.0426   -4.0343    0.0000 H       1  UNL1        0.0661
    111 H           9.0931    0.5191    0.0000 H       1  UNL1        0.0660
    112 H           9.8285    0.9967    0.0000 H       1  UNL1        0.0660
    113 H           9.3510    1.7320    0.0000 H       1  UNL1        0.0660
    114 H           3.2670    4.1700    0.0000 H       1  UNL1        0.0624
    115 H           2.7237    0.8856    0.0000 H       1  UNL1        0.0638
    116 H           7.8176   -0.4334    0.0000 H       1  UNL1        0.0661
    117 H           8.3453    0.2669    0.0000 H       1  UNL1        0.0661
    118 H           7.6450    0.7946    0.0000 H       1  UNL1        0.0661
    119 H           1.6940    3.5923    0.0000 H       1  UNL1        0.0618
    120 H           1.4205    1.9390    0.0000 H       1  UNL1        0.0618
    121 H           5.1973    6.9573    0.0000 H       1  UNL1        0.0306
    122 H           4.4445    7.4068    0.0000 H       1  UNL1        0.0306
    123 H           3.9949    6.6541    0.0000 H       1  UNL1        0.0306
@<TRIPOS>BOND
     1     1    21    1
     2     1    46    1
     3     2    19    1
     4     2    78    1
     5     3    32    1
     6     3    33    1
     7     4    30    1
     8     4    53    1
     9     5    30    2
    10     6    40    1
    11     6    56    1
    12     7    47    1
    13     7    60    1
    14     8    46    2
    15     9    47    2
    16    10    57    2
    17    11    16    1
    18    11    23    1
    19    11    27    1
    20    12    17    1
    21    12    25    1
    22    12    31    1
    23    13    41    1
    24    13    42    1
    25    13    45    1
    26    14    44   ar
    27    14    55   ar
    28    14   102    1
    29    15    16    1
    30    15    17    1
    31    15    20    1
    32    15    22    1
    33    16    18    1
    34    16    64    1
    35    17    19    1
    36    17    65    1
    37    18    21    1
    38    18    24    1
    39    18    26    1
    40    19    21    1
    41    19    30    1
    42    20    23    1
    43    20    66    1
    44    20    67    1
    45    21    68    1
    46    22    25   ar
    47    22    28   ar
    48    23    69    1
    49    23    70    1
    50    24    38    1
    51    24    71    1
    52    24    72    1
    53    25    35   ar
    54    26    29    2
    55    26    73    1
    56    27    29    1
    57    27    74    1
    58    27    75    1
    59    28    34   ar
    60    28    76    1
    61    29    77    1
    62    31    79    1
    63    31    80    1
    64    31    81    1
    65    32    33    1
    66    32    36    1
    67    32    82    1
    68    33    41    1
    69    33    43    1
    70    34    37    1
    71    34    40   ar
    72    35    40   ar
    73    35    83    1
    74    36    39    1
    75    36    42    1
    76    36    84    1
    77    37    39    1
    78    37    44    1
    79    37    47    1
    80    38    85    1
    81    38    86    1
    82    38    87    1
    83    39    88    1
    84    39    89    1
    85    41    90    1
    86    41    91    1
    87    42    92    1
    88    42    93    1
    89    43    50    1
    90    43    94    1
    91    43    95    1
    92    44    48   ar
    93    45    49    1
    94    45    51    1
    95    45    96    1
    96    46    52    1
    97    48    49    1
    98    48    54   ar
    99    49    97    1
   100    49    98    1
   101    50    99    1
   102    50   100    1
   103    50   101    1
   104    51    57    1
   105    51   103    1
   106    51   104    1
   107    52   105    1
   108    52   106    1
   109    52   107    1
   110    53   108    1
   111    53   109    1
   112    53   110    1
   113    54    55   ar
   114    54    58   ar
   115    55    59   ar
   116    56   111    1
   117    56   112    1
   118    56   113    1
   119    57    63    1
   120    58    61   ar
   121    58   114    1
   122    59    62   ar
   123    59   115    1
   124    60   116    1
   125    60   117    1
   126    60   118    1
   127    61    62   ar
   128    61   119    1
   129    62   120    1
   130    63   121    1
   131    63   122    1
   132    63   123    1
