@<TRIPOS>MOLECULE
IMPHY014300
 83 85 0 0 0
SMALL
GASTEIGER

@<TRIPOS>ATOM
      1 O          13.9776    0.4322    0.0000 O.3     1  UNL1       -0.3915
      2 O          10.2267    1.3187    0.0000 O.3     1  UNL1       -0.4643
      3 O          13.0833    5.2020    0.0000 O.3     1  UNL1       -0.3946
      4 O          11.3681    4.9609    0.0000 O.3     1  UNL1       -0.3946
      5 O           5.1350   -2.2737    0.0000 O.3     1  UNL1       -0.3404
      6 O           6.8671   -2.2737    0.0000 O.3     1  UNL1       -0.3061
      7 O           8.8999    2.4321    0.0000 O.2     1  UNL1       -0.2508
      8 O           6.0010   -0.7737    0.0000 O.2     1  UNL1       -0.4666
      9 O           5.1350   -5.2737    0.0000 O.3     1  UNL1       -0.3864
     10 O           6.8671   -4.2737    0.0000 O.3     1  UNL1       -0.3841
     11 O           3.4030   -4.2737    0.0000 O.3     1  UNL1       -0.3865
     12 O           2.5369   -2.7737    0.0000 O.3     1  UNL1       -0.3924
     13 O           6.0010    2.2263    0.0000 O.3     1  UNL1       -0.4646
     14 O           7.2091    2.6660    0.0000 O.2     1  UNL1       -0.2452
     15 C          12.5736    2.6058    0.0000 C.3     1  UNL1       -0.0255
     16 C          11.8543    1.9111    0.0000 C.3     1  UNL1        0.0015
     17 C          12.2927    1.0123    0.0000 C.3     1  UNL1       -0.0116
     18 C          13.4566    2.1363    0.0000 C.3     1  UNL1       -0.0230
     19 C          13.2829    1.1515    0.0000 C.3     1  UNL1        0.0584
     20 C          12.4345    3.5960    0.0000 C.3     1  UNL1        0.0086
     21 C          10.8695    2.0848    0.0000 C.3     1  UNL1        0.0958
     22 C          11.8232    0.1294    0.0000 C.3     1  UNL1       -0.0597
     23 C          13.2225    4.2117    0.0000 C.3     1  UNL1        0.0494
     24 C          11.5073    3.9706    0.0000 C.3     1  UNL1        0.0494
     25 C           9.2419    1.4924    0.0000 C.2     1  UNL1        0.3080
     26 C           8.5991    0.7263    0.0000 C.3     1  UNL1        0.0559
     27 C           7.7331    0.2263    0.0000 C.3     1  UNL1        0.0307
     28 C           5.1350   -4.2737    0.0000 C.3     1  UNL1        0.1141
     29 C           6.0010   -3.7737    0.0000 C.3     1  UNL1        0.1343
     30 C           4.2690   -3.7737    0.0000 C.3     1  UNL1        0.1119
     31 C           6.0010   -2.7737    0.0000 C.3     1  UNL1        0.1921
     32 C           4.2690   -2.7737    0.0000 C.3     1  UNL1        0.1130
     33 C           7.7331   -0.7737    0.0000 C.2     1  UNL1        0.0019
     34 C           6.8671   -1.2737    0.0000 C.3     1  UNL1        0.2266
     35 C           6.8671    0.7263    0.0000 C.2     1  UNL1        0.0785
     36 C           3.4030   -2.2737    0.0000 C.3     1  UNL1        0.0730
     37 C           6.0010    0.2263    0.0000 C.2     1  UNL1        0.0988
     38 C           8.5991   -1.2737    0.0000 C.2     1  UNL1       -0.0814
     39 C           6.8671    1.7263    0.0000 C.2     1  UNL1        0.3384
     40 C           9.4651   -0.7737    0.0000 C.3     1  UNL1       -0.0464
     41 C           6.0010    3.2263    0.0000 C.3     1  UNL1        0.0820
     42 H          13.0815    2.9614    0.0000 H       1  UNL1        0.0309
     43 H          11.4812    1.4160    0.0000 H       1  UNL1        0.0340
     44 H          12.6483    0.5044    0.0000 H       1  UNL1        0.0327
     45 H          14.0526    1.9654    0.0000 H       1  UNL1        0.0293
     46 H          13.6888    2.7112    0.0000 H       1  UNL1        0.0293
     47 H          13.8759    1.3328    0.0000 H       1  UNL1        0.0596
     48 H          13.0093    3.3638    0.0000 H       1  UNL1        0.0348
     49 H          11.0815    2.6674    0.0000 H       1  UNL1        0.0700
     50 H          10.3326    2.3948    0.0000 H       1  UNL1        0.0700
     51 H          11.2758    0.4204    0.0000 H       1  UNL1        0.0233
     52 H          11.5321   -0.4181    0.0000 H       1  UNL1        0.0233
     53 H          12.3706   -0.1617    0.0000 H       1  UNL1        0.0233
     54 H          13.5136    3.6643    0.0000 H       1  UNL1        0.0561
     55 H          13.8121    4.4033    0.0000 H       1  UNL1        0.0561
     56 H          10.8877    3.9923    0.0000 H       1  UNL1        0.0561
     57 H          11.3784    3.3642    0.0000 H       1  UNL1        0.0561
     58 H          14.5792    0.5821    0.0000 H       1  UNL1        0.2098
     59 H          13.5719    5.5837    0.0000 H       1  UNL1        0.2094
     60 H          10.7933    5.1932    0.0000 H       1  UNL1        0.2094
     61 H           8.6711    0.1105    0.0000 H       1  UNL1        0.0387
     62 H           8.2006    1.2013    0.0000 H       1  UNL1        0.0387
     63 H           8.2700   -0.0837    0.0000 H       1  UNL1        0.0404
     64 H           4.5981   -4.5837    0.0000 H       1  UNL1        0.0648
     65 H           6.0010   -4.3937    0.0000 H       1  UNL1        0.0671
     66 H           4.2690   -4.3937    0.0000 H       1  UNL1        0.0647
     67 H           6.0010   -2.1537    0.0000 H       1  UNL1        0.0939
     68 H           4.2690   -2.1537    0.0000 H       1  UNL1        0.0647
     69 H           7.4040   -1.5837    0.0000 H       1  UNL1        0.1109
     70 H           3.8015   -1.7987    0.0000 H       1  UNL1        0.0584
     71 H           3.0044   -1.7987    0.0000 H       1  UNL1        0.0584
     72 H           5.4641    0.5363    0.0000 H       1  UNL1        0.1030
     73 H           8.5991   -1.8937    0.0000 H       1  UNL1        0.0571
     74 H           4.5981   -5.5837    0.0000 H       1  UNL1        0.2100
     75 H           6.8671   -4.8937    0.0000 H       1  UNL1        0.2101
     76 H           3.4030   -4.8937    0.0000 H       1  UNL1        0.2100
     77 H           9.7751   -1.3106    0.0000 H       1  UNL1        0.0272
     78 H          10.0021   -0.4637    0.0000 H       1  UNL1        0.0272
     79 H           9.1551   -0.2367    0.0000 H       1  UNL1        0.0272
     80 H           2.0000   -2.4637    0.0000 H       1  UNL1        0.2095
     81 H           6.6210    3.2263    0.0000 H       1  UNL1        0.0661
     82 H           6.0010    3.8463    0.0000 H       1  UNL1        0.0661
     83 H           5.3810    3.2263    0.0000 H       1  UNL1        0.0661
@<TRIPOS>BOND
     1    19     1    1
     2     1    58    1
     3     2    21    1
     4     2    25    1
     5     3    23    1
     6     3    59    1
     7     4    24    1
     8     4    60    1
     9     5    31    1
    10     5    32    1
    11    31     6    1
    12    34     6    1
    13     7    25    2
    14     8    34    1
    15     8    37    1
    16    28     9    1
    17     9    74    1
    18    29    10    1
    19    10    75    1
    20    30    11    1
    21    11    76    1
    22    12    36    1
    23    12    80    1
    24    13    39    1
    25    13    41    1
    26    14    39    2
    27    15    16    1
    28    15    18    1
    29    15    20    1
    30    15    42    1
    31    16    17    1
    32    16    21    1
    33    16    43    1
    34    17    19    1
    35    17    22    1
    36    17    44    1
    37    18    19    1
    38    18    45    1
    39    18    46    1
    40    19    47    1
    41    20    23    1
    42    20    24    1
    43    20    48    1
    44    21    49    1
    45    21    50    1
    46    22    51    1
    47    22    52    1
    48    22    53    1
    49    23    54    1
    50    23    55    1
    51    24    56    1
    52    24    57    1
    53    25    26    1
    54    27    26    1
    55    26    61    1
    56    26    62    1
    57    27    33    1
    58    27    35    1
    59    27    63    1
    60    28    29    1
    61    28    30    1
    62    28    64    1
    63    29    31    1
    64    29    65    1
    65    30    32    1
    66    30    66    1
    67    31    67    1
    68    32    36    1
    69    32    68    1
    70    33    34    1
    71    33    38    2
    72    34    69    1
    73    35    37    2
    74    35    39    1
    75    36    70    1
    76    36    71    1
    77    37    72    1
    78    38    40    1
    79    38    73    1
    80    40    77    1
    81    40    78    1
    82    40    79    1
    83    41    81    1
    84    41    82    1
    85    41    83    1
