@<TRIPOS>MOLECULE
IMPHY012146
 53 55 0 0 0
SMALL
GASTEIGER

@<TRIPOS>ATOM
      1 O           2.4900   -2.2957    0.0000 O.3     1  UNL1       -0.4675
      2 O           3.9999   -3.1443    0.0000 O.2     1  UNL1       -0.2502
      3 C           4.8738   -0.8777    0.0000 C.3     1  UNL1       -0.0158
      4 C           4.8738    0.1223    0.0000 C.3     1  UNL1       -0.0030
      5 C           3.9798   -1.4124    0.0000 C.3     1  UNL1        0.0686
      6 C           3.9798    0.6570    0.0000 C.3     1  UNL1       -0.0433
      7 C           5.7398   -1.3777    0.0000 C.3     1  UNL1       -0.0444
      8 C           3.0738   -0.8985    0.0000 C.3     1  UNL1       -0.0372
      9 C           3.0738    0.1431    0.0000 C.3     1  UNL1       -0.0512
     10 C           5.7398    0.6223    0.0000 C.ar    1  UNL1       -0.0380
     11 C           6.6058   -0.8777    0.0000 C.3     1  UNL1       -0.0271
     12 C           4.8738    1.1223    0.0000 C.3     1  UNL1       -0.0552
     13 C           6.6058    0.1223    0.0000 C.ar    1  UNL1       -0.0434
     14 C           4.4898   -2.2725    0.0000 C.3     1  UNL1       -0.0491
     15 C           3.4899   -2.2841    0.0000 C.2     1  UNL1        0.3131
     16 C           5.7238    1.6638    0.0000 C.ar    1  UNL1       -0.0575
     17 C           7.5158    0.6292    0.0000 C.ar    1  UNL1       -0.0549
     18 C           7.5239    1.6708    0.0000 C.ar    1  UNL1       -0.0445
     19 C           6.6218    2.1916    0.0000 C.ar    1  UNL1       -0.0580
     20 C           8.3918    2.1674    0.0000 C.3     1  UNL1       -0.0215
     21 C           2.0000   -3.1674    0.0000 C.3     1  UNL1        0.0817
     22 C           8.3957    3.1674    0.0000 C.3     1  UNL1       -0.0586
     23 C           9.2559    1.6641    0.0000 C.3     1  UNL1       -0.0586
     24 H           4.8803   -1.7277    0.0000 H       1  UNL1        0.0320
     25 H           4.3844    1.1268    0.0000 H       1  UNL1        0.0274
     26 H           3.5862    1.1360    0.0000 H       1  UNL1        0.0274
     27 H           5.3413   -1.8526    0.0000 H       1  UNL1        0.0272
     28 H           6.1383   -1.8526    0.0000 H       1  UNL1        0.0272
     29 H           2.4629   -0.7924    0.0000 H       1  UNL1        0.0276
     30 H           2.8647   -1.4822    0.0000 H       1  UNL1        0.0276
     31 H           2.8647    0.7268    0.0000 H       1  UNL1        0.0266
     32 H           2.4629    0.0370    0.0000 H       1  UNL1        0.0266
     33 H           6.8179   -1.4603    0.0000 H       1  UNL1        0.0313
     34 H           7.2164   -0.7700    0.0000 H       1  UNL1        0.0313
     35 H           5.4938    1.1223    0.0000 H       1  UNL1        0.0238
     36 H           4.8738    1.7423    0.0000 H       1  UNL1        0.0238
     37 H           4.2538    1.1223    0.0000 H       1  UNL1        0.0238
     38 H           3.9565   -2.5887    0.0000 H       1  UNL1        0.0240
     39 H           4.8060   -2.8058    0.0000 H       1  UNL1        0.0240
     40 H           5.0231   -1.9564    0.0000 H       1  UNL1        0.0240
     41 H           5.1833    1.9676    0.0000 H       1  UNL1        0.0621
     42 H           8.0491    0.3130    0.0000 H       1  UNL1        0.0623
     43 H           6.6194    2.8116    0.0000 H       1  UNL1        0.0620
     44 H           8.9299    2.4754    0.0000 H       1  UNL1        0.0343
     45 H           1.4595   -2.8636    0.0000 H       1  UNL1        0.0661
     46 H           1.6962   -3.7079    0.0000 H       1  UNL1        0.0661
     47 H           2.5405   -3.4712    0.0000 H       1  UNL1        0.0661
     48 H           9.0157    3.1650    0.0000 H       1  UNL1        0.0235
     49 H           8.3980    3.7874    0.0000 H       1  UNL1        0.0235
     50 H           7.7757    3.1698    0.0000 H       1  UNL1        0.0235
     51 H           8.9438    1.1284    0.0000 H       1  UNL1        0.0235
     52 H           9.7916    1.3520    0.0000 H       1  UNL1        0.0235
     53 H           9.5680    2.1998    0.0000 H       1  UNL1        0.0235
@<TRIPOS>BOND
     1     1    15    1
     2     1    21    1
     3     2    15    2
     4     3     4    1
     5     3     5    1
     6     3     7    1
     7     3    24    1
     8     4     6    1
     9     4    10    1
    10     4    12    1
    11     5     8    1
    12     5    14    1
    13     5    15    1
    14     6     9    1
    15     6    25    1
    16     6    26    1
    17     7    11    1
    18     7    27    1
    19     7    28    1
    20     8     9    1
    21     8    29    1
    22     8    30    1
    23     9    31    1
    24     9    32    1
    25    10    13   ar
    26    10    16   ar
    27    11    13    1
    28    11    33    1
    29    11    34    1
    30    12    35    1
    31    12    36    1
    32    12    37    1
    33    13    17   ar
    34    14    38    1
    35    14    39    1
    36    14    40    1
    37    16    19   ar
    38    16    41    1
    39    17    18   ar
    40    17    42    1
    41    18    19   ar
    42    18    20    1
    43    19    43    1
    44    20    22    1
    45    20    23    1
    46    20    44    1
    47    21    45    1
    48    21    46    1
    49    21    47    1
    50    22    48    1
    51    22    49    1
    52    22    50    1
    53    23    51    1
    54    23    52    1
    55    23    53    1
