@<TRIPOS>MOLECULE
IMPHY007054
 22 22 0 0 0
SMALL
GASTEIGER

@<TRIPOS>ATOM
      1 O           3.7320    1.6550    0.0000 O.3     1  UNL1       -0.4614
      2 O           2.8660   -2.8450    0.0000 O.3     1  UNL1       -0.5068
      3 O           2.0000    1.6550    0.0000 O.2     1  UNL1       -0.2450
      4 C           2.8660    0.1550    0.0000 C.ar    1  UNL1        0.0592
      5 C           2.0000   -0.3450    0.0000 C.ar    1  UNL1       -0.0443
      6 C           3.7320   -0.3450    0.0000 C.ar    1  UNL1       -0.0443
      7 C           2.8660    1.1550    0.0000 C.2     1  UNL1        0.3392
      8 C           3.7320    2.6550    0.0000 C.3     1  UNL1        0.0900
      9 C           2.0000   -1.3450    0.0000 C.ar    1  UNL1       -0.0194
     10 C           3.7320   -1.3450    0.0000 C.ar    1  UNL1       -0.0194
     11 C           2.8660   -1.8450    0.0000 C.ar    1  UNL1        0.1169
     12 C           4.5981    3.1550    0.0000 C.3     1  UNL1       -0.0306
     13 H           1.4631   -0.0350    0.0000 H       1  UNL1        0.0627
     14 H           4.2690   -0.0350    0.0000 H       1  UNL1        0.0627
     15 H           3.5200    3.2376    0.0000 H       1  UNL1        0.0695
     16 H           3.1215    2.5473    0.0000 H       1  UNL1        0.0695
     17 H           1.4631   -1.6550    0.0000 H       1  UNL1        0.0654
     18 H           4.2690   -1.6550    0.0000 H       1  UNL1        0.0654
     19 H           4.9081    2.6181    0.0000 H       1  UNL1        0.0262
     20 H           5.1350    3.4650    0.0000 H       1  UNL1        0.0262
     21 H           4.2881    3.6919    0.0000 H       1  UNL1        0.0262
     22 H           2.3291   -3.1550    0.0000 H       1  UNL1        0.2921
@<TRIPOS>BOND
     1     1     7    1
     2     1     8    1
     3     2    11    1
     4     2    22    1
     5     3     7    2
     6     4     5   ar
     7     4     6   ar
     8     4     7    1
     9     5     9   ar
    10     5    13    1
    11     6    10   ar
    12     6    14    1
    13     8    12    1
    14     8    15    1
    15     8    16    1
    16     9    11   ar
    17     9    17    1
    18    10    11   ar
    19    10    18    1
    20    12    19    1
    21    12    20    1
    22    12    21    1
