@<TRIPOS>MOLECULE
IMPHY000798
 59 58 0 0 0
SMALL
GASTEIGER

@<TRIPOS>ATOM
      1 O           8.9282   -1.2500    0.0000 O.3     1  UNL1       -0.3892
      2 O           9.7942    1.2500    0.0000 O.3     1  UNL1       -0.3892
      3 O           6.3301    1.2500    0.0000 O.3     1  UNL1       -0.3918
      4 O          17.5885   -0.2500    0.0000 O.3     1  UNL1       -0.4806
      5 O          16.7224    1.2500    0.0000 O.2     1  UNL1       -0.2510
      6 C           8.9282   -0.2500    0.0000 C.3     1  UNL1        0.0811
      7 C           9.7942    0.2500    0.0000 C.3     1  UNL1        0.0811
      8 C           8.0622    0.2500    0.0000 C.3     1  UNL1       -0.0221
      9 C           7.1962   -0.2500    0.0000 C.3     1  UNL1       -0.0244
     10 C          10.6603   -0.2500    0.0000 C.3     1  UNL1       -0.0244
     11 C           6.3301    0.2500    0.0000 C.3     1  UNL1        0.0553
     12 C          11.5263    0.2500    0.0000 C.3     1  UNL1       -0.0506
     13 C           5.4641   -0.2500    0.0000 C.3     1  UNL1       -0.0269
     14 C          12.3923   -0.2500    0.0000 C.3     1  UNL1       -0.0530
     15 C          13.2583    0.2500    0.0000 C.3     1  UNL1       -0.0530
     16 C           4.5981    0.2500    0.0000 C.3     1  UNL1       -0.0507
     17 C          14.1244   -0.2500    0.0000 C.3     1  UNL1       -0.0526
     18 C           3.7320   -0.2500    0.0000 C.3     1  UNL1       -0.0532
     19 C          14.9904    0.2500    0.0000 C.3     1  UNL1       -0.0430
     20 C           2.8660    0.2500    0.0000 C.3     1  UNL1       -0.0559
     21 C          15.8564   -0.2500    0.0000 C.3     1  UNL1        0.0448
     22 C           2.0000   -0.2500    0.0000 C.3     1  UNL1       -0.0653
     23 C          16.7224    0.2500    0.0000 C.2     1  UNL1        0.3047
     24 H           9.4651   -0.5600    0.0000 H       1  UNL1        0.0619
     25 H           9.2573    0.5600    0.0000 H       1  UNL1        0.0619
     26 H           8.4607    0.7249    0.0000 H       1  UNL1        0.0292
     27 H           7.6636    0.7249    0.0000 H       1  UNL1        0.0292
     28 H           6.7976   -0.7249    0.0000 H       1  UNL1        0.0291
     29 H           7.5947   -0.7249    0.0000 H       1  UNL1        0.0291
     30 H          10.2617   -0.7249    0.0000 H       1  UNL1        0.0291
     31 H          11.0588   -0.7249    0.0000 H       1  UNL1        0.0291
     32 H           6.8671    0.5600    0.0000 H       1  UNL1        0.0593
     33 H          11.9248    0.7249    0.0000 H       1  UNL1        0.0266
     34 H          11.1278    0.7249    0.0000 H       1  UNL1        0.0266
     35 H           5.0656   -0.7249    0.0000 H       1  UNL1        0.0290
     36 H           5.8626   -0.7249    0.0000 H       1  UNL1        0.0290
     37 H          11.9938   -0.7249    0.0000 H       1  UNL1        0.0265
     38 H          12.7908   -0.7249    0.0000 H       1  UNL1        0.0265
     39 H          13.6569    0.7249    0.0000 H       1  UNL1        0.0265
     40 H          12.8598    0.7249    0.0000 H       1  UNL1        0.0265
     41 H           4.9966    0.7249    0.0000 H       1  UNL1        0.0266
     42 H           4.1996    0.7249    0.0000 H       1  UNL1        0.0266
     43 H          13.7258   -0.7249    0.0000 H       1  UNL1        0.0265
     44 H          14.5229   -0.7249    0.0000 H       1  UNL1        0.0265
     45 H           3.3335   -0.7249    0.0000 H       1  UNL1        0.0265
     46 H           4.1306   -0.7249    0.0000 H       1  UNL1        0.0265
     47 H           8.3913   -1.5600    0.0000 H       1  UNL1        0.2099
     48 H          10.3312    1.5600    0.0000 H       1  UNL1        0.2099
     49 H          15.3889    0.7249    0.0000 H       1  UNL1        0.0270
     50 H          14.5919    0.7249    0.0000 H       1  UNL1        0.0270
     51 H           3.2646    0.7249    0.0000 H       1  UNL1        0.0263
     52 H           2.4675    0.7249    0.0000 H       1  UNL1        0.0263
     53 H           5.7932    1.5600    0.0000 H       1  UNL1        0.2098
     54 H          15.4579   -0.7249    0.0000 H       1  UNL1        0.0377
     55 H          16.2549   -0.7249    0.0000 H       1  UNL1        0.0377
     56 H           1.6900    0.2869    0.0000 H       1  UNL1        0.0230
     57 H           1.4631   -0.5600    0.0000 H       1  UNL1        0.0230
     58 H           2.3100   -0.7869    0.0000 H       1  UNL1        0.0230
     59 H          18.1254    0.0600    0.0000 H       1  UNL1        0.2951
@<TRIPOS>BOND
     1     1     6    1
     2     1    47    1
     3     2     7    1
     4     2    48    1
     5     3    11    1
     6     3    53    1
     7     4    23    1
     8     4    59    1
     9     5    23    2
    10     6     7    1
    11     6     8    1
    12     6    24    1
    13     7    10    1
    14     7    25    1
    15     8     9    1
    16     8    26    1
    17     8    27    1
    18     9    11    1
    19     9    28    1
    20     9    29    1
    21    10    12    1
    22    10    30    1
    23    10    31    1
    24    11    13    1
    25    11    32    1
    26    12    14    1
    27    12    33    1
    28    12    34    1
    29    13    16    1
    30    13    35    1
    31    13    36    1
    32    14    15    1
    33    14    37    1
    34    14    38    1
    35    15    17    1
    36    15    39    1
    37    15    40    1
    38    16    18    1
    39    16    41    1
    40    16    42    1
    41    17    19    1
    42    17    43    1
    43    17    44    1
    44    18    20    1
    45    18    45    1
    46    18    46    1
    47    19    21    1
    48    19    49    1
    49    19    50    1
    50    20    22    1
    51    20    51    1
    52    20    52    1
    53    21    23    1
    54    21    54    1
    55    21    55    1
    56    22    56    1
    57    22    57    1
    58    22    58    1
