@<TRIPOS>MOLECULE
IMPHY000395
 34 36 0 0 0
SMALL
GASTEIGER

@<TRIPOS>ATOM
      1 O           2.7493   -1.0043    0.0000 O.3     1  UNL1       -0.5063
      2 O           4.8717   -3.4052    0.0000 O.2     1  UNL1       -0.2927
      3 O           2.0000    2.4554    0.0000 O.3     1  UNL1       -0.4950
      4 C           4.8717   -0.4052    0.0000 C.3     1  UNL1        0.0185
      5 C           5.6808    0.1826    0.0000 C.3     1  UNL1       -0.0357
      6 C           4.0627    0.1826    0.0000 C.ar    1  UNL1        0.0074
      7 C           5.7378   -0.9052    0.0000 C.3     1  UNL1       -0.0327
      8 C           5.3717    1.1336    0.0000 C.3     1  UNL1       -0.0261
      9 C           4.3717    1.1336    0.0000 C.ar    1  UNL1       -0.0364
     10 C           4.0057   -0.9052    0.0000 C.2     1  UNL1       -0.0701
     11 C           5.7378   -1.9052    0.0000 C.3     1  UNL1        0.0109
     12 C           3.0473   -0.0497    0.0000 C.ar    1  UNL1        0.1246
     13 C           4.0057   -1.9052    0.0000 C.2     1  UNL1       -0.0223
     14 C           3.6868    1.9184    0.0000 C.ar    1  UNL1       -0.0163
     15 C           4.8717   -2.4052    0.0000 C.2     1  UNL1        0.1559
     16 C           2.3444    0.7190    0.0000 C.ar    1  UNL1        0.0218
     17 C           2.6663    1.7096    0.0000 C.ar    1  UNL1        0.1238
     18 C           2.3127    3.4052    0.0000 C.3     1  UNL1        0.0788
     19 H           5.9908   -0.3544    0.0000 H       1  UNL1        0.0280
     20 H           6.2472    0.4347    0.0000 H       1  UNL1        0.0280
     21 H           6.3484   -1.0129    0.0000 H       1  UNL1        0.0281
     22 H           5.9498   -0.3226    0.0000 H       1  UNL1        0.0281
     23 H           5.9782    1.2625    0.0000 H       1  UNL1        0.0314
     24 H           5.3069    1.7502    0.0000 H       1  UNL1        0.0314
     25 H           3.4688   -0.5952    0.0000 H       1  UNL1        0.0582
     26 H           5.9498   -2.4878    0.0000 H       1  UNL1        0.0345
     27 H           6.3484   -1.7976    0.0000 H       1  UNL1        0.0345
     28 H           3.8852    2.5058    0.0000 H       1  UNL1        0.0657
     29 H           3.4688   -2.2152    0.0000 H       1  UNL1        0.0649
     30 H           1.7384    0.5878    0.0000 H       1  UNL1        0.0691
     31 H           2.1444   -1.1402    0.0000 H       1  UNL1        0.2921
     32 H           2.9016    3.2114    0.0000 H       1  UNL1        0.0660
     33 H           2.5065    3.9941    0.0000 H       1  UNL1        0.0660
     34 H           1.7238    3.5991    0.0000 H       1  UNL1        0.0660
@<TRIPOS>BOND
     1     1    12    1
     2     1    31    1
     3     2    15    2
     4     3    17    1
     5     3    18    1
     6     4     5    1
     7     4     6    1
     8     4     7    1
     9     4    10    1
    10     5     8    1
    11     5    19    1
    12     5    20    1
    13     6     9   ar
    14     6    12   ar
    15     7    11    1
    16     7    21    1
    17     7    22    1
    18     8     9    1
    19     8    23    1
    20     8    24    1
    21     9    14   ar
    22    10    13    2
    23    10    25    1
    24    11    15    1
    25    11    26    1
    26    11    27    1
    27    12    16   ar
    28    13    15    1
    29    13    29    1
    30    14    17   ar
    31    14    28    1
    32    16    17   ar
    33    16    30    1
    34    18    32    1
    35    18    33    1
    36    18    34    1
