@<TRIPOS>MOLECULE
IMPHY010162
 80 83 0 0 0
SMALL
GASTEIGER

@<TRIPOS>ATOM
      1 O           2.5357   -3.3979    0.0000 O.3     1  UNL1       -0.3918
      2 O          11.2472    3.2511    0.0000 O.3     1  UNL1       -0.3886
      3 C           7.9288   -0.3456    0.0000 C.3     1  UNL1       -0.0259
      4 C           7.9288   -1.3456    0.0000 C.3     1  UNL1       -0.0323
      5 C           7.0628   -1.8456    0.0000 C.3     1  UNL1       -0.0344
      6 C           6.1968   -1.3456    0.0000 C.3     1  UNL1       -0.0323
      7 C           5.2868   -1.8524    0.0000 C.3     1  UNL1       -0.0260
      8 C           8.8750   -0.0408    0.0000 C.3     1  UNL1       -0.0328
      9 C           7.0628    0.1544    0.0000 C.3     1  UNL1       -0.0468
     10 C           5.2787   -2.8940    0.0000 C.3     1  UNL1       -0.0330
     11 C           6.1968   -0.3456    0.0000 C.3     1  UNL1       -0.0489
     12 C           8.8750   -1.6503    0.0000 C.3     1  UNL1       -0.0492
     13 C           7.0789   -2.8871    0.0000 C.3     1  UNL1       -0.0494
     14 C           9.4586   -0.8456    0.0000 C.3     1  UNL1       -0.0492
     15 C           6.1808   -3.4148    0.0000 C.3     1  UNL1       -0.0494
     16 C           4.3599   -1.2883    0.0000 C.3     1  UNL1       -0.0448
     17 C           7.9288    0.6544    0.0000 C.3     1  UNL1       -0.0590
     18 C           9.1857    0.9097    0.0000 C.3     1  UNL1       -0.0405
     19 C           4.3433   -3.4438    0.0000 C.3     1  UNL1       -0.0235
     20 C           5.2945   -0.8525    0.0000 C.3     1  UNL1       -0.0590
     21 C           3.4120   -1.8163    0.0000 C.3     1  UNL1       -0.0263
     22 C           3.4037   -2.9012    0.0000 C.3     1  UNL1        0.0555
     23 C          10.1642    1.1159    0.0000 C.3     1  UNL1       -0.0476
     24 C           8.5179    1.6540    0.0000 C.3     1  UNL1       -0.0621
     25 C          10.4749    2.0664    0.0000 C.3     1  UNL1       -0.0238
     26 C          11.4534    2.2726    0.0000 C.3     1  UNL1        0.0656
     27 C          12.4319    2.4788    0.0000 C.3     1  UNL1       -0.0180
     28 C          11.6596    1.2941    0.0000 C.3     1  UNL1       -0.0358
     29 C          12.7425    3.4294    0.0000 C.3     1  UNL1       -0.0601
     30 C          13.0997    1.7346    0.0000 C.3     1  UNL1       -0.0601
     31 H           8.0188   -2.1908    0.0000 H       1  UNL1        0.0309
     32 H           7.8022   -2.2649    0.0000 H       1  UNL1        0.0306
     33 H           6.9329   -0.9206    0.0000 H       1  UNL1        0.0309
     34 H           9.7148    0.0910    0.0000 H       1  UNL1        0.0309
     35 H           7.4613    0.6294    0.0000 H       1  UNL1        0.0271
     36 H           6.6643    0.6294    0.0000 H       1  UNL1        0.0271
     37 H           5.2820   -3.7440    0.0000 H       1  UNL1        0.0307
     38 H           5.9847    0.2370    0.0000 H       1  UNL1        0.0268
     39 H           5.5862   -0.4532    0.0000 H       1  UNL1        0.0268
     40 H           8.6240   -2.2172    0.0000 H       1  UNL1        0.0268
     41 H           9.4124   -1.9595    0.0000 H       1  UNL1        0.0268
     42 H           7.2969   -3.4675    0.0000 H       1  UNL1        0.0268
     43 H           7.6880   -2.7716    0.0000 H       1  UNL1        0.0268
     44 H           9.9195   -1.2603    0.0000 H       1  UNL1        0.0268
     45 H           9.9195   -0.4308    0.0000 H       1  UNL1        0.0268
     46 H           5.7835   -3.8908    0.0000 H       1  UNL1        0.0268
     47 H           6.5818   -3.8877    0.0000 H       1  UNL1        0.0268
     48 H           4.7681   -0.8217    0.0000 H       1  UNL1        0.0271
     49 H           3.9700   -0.8063    0.0000 H       1  UNL1        0.0271
     50 H           8.5488    0.6544    0.0000 H       1  UNL1        0.0235
     51 H           7.9288    1.2744    0.0000 H       1  UNL1        0.0235
     52 H           7.3088    0.6544    0.0000 H       1  UNL1        0.0235
     53 H           9.3783    1.4990    0.0000 H       1  UNL1        0.0301
     54 H           3.9460   -3.9197    0.0000 H       1  UNL1        0.0293
     55 H           4.7443   -3.9166    0.0000 H       1  UNL1        0.0293
     56 H           5.9145   -0.8572    0.0000 H       1  UNL1        0.0235
     57 H           5.2993   -0.2325    0.0000 H       1  UNL1        0.0235
     58 H           4.6745   -0.8477    0.0000 H       1  UNL1        0.0235
     59 H           3.2075   -1.2310    0.0000 H       1  UNL1        0.0290
     60 H           2.8004   -1.9177    0.0000 H       1  UNL1        0.0290
     61 H           2.6700   -2.4720    0.0000 H       1  UNL1        0.0593
     62 H          10.1848    0.4962    0.0000 H       1  UNL1        0.0269
     63 H          10.7780    1.0285    0.0000 H       1  UNL1        0.0269
     64 H           8.9793    2.0680    0.0000 H       1  UNL1        0.0233
     65 H           8.1038    2.1154    0.0000 H       1  UNL1        0.0233
     66 H           8.0564    1.2399    0.0000 H       1  UNL1        0.0233
     67 H          10.4543    2.6861    0.0000 H       1  UNL1        0.0293
     68 H           9.8611    2.1538    0.0000 H       1  UNL1        0.0293
     69 H           2.0000   -3.0858    0.0000 H       1  UNL1        0.2098
     70 H          12.0178    2.9403    0.0000 H       1  UNL1        0.0323
     71 H          11.0529    1.1663    0.0000 H       1  UNL1        0.0257
     72 H          11.7875    0.6875    0.0000 H       1  UNL1        0.0257
     73 H          12.2663    1.4220    0.0000 H       1  UNL1        0.0257
     74 H          10.6578    3.4438    0.0000 H       1  UNL1        0.2102
     75 H          13.3319    3.2368    0.0000 H       1  UNL1        0.0233
     76 H          12.9352    4.0187    0.0000 H       1  UNL1        0.0233
     77 H          12.1532    3.6220    0.0000 H       1  UNL1        0.0233
     78 H          12.6383    1.3205    0.0000 H       1  UNL1        0.0233
     79 H          13.5138    1.2731    0.0000 H       1  UNL1        0.0233
     80 H          13.5612    2.1486    0.0000 H       1  UNL1        0.0233
@<TRIPOS>BOND
     1     1    22    1
     2     1    69    1
     3    26     2    1
     4     2    74    1
     5     3     4    1
     6     3     8    1
     7     3     9    1
     8     3    17    1
     9     4     5    1
    10     4    12    1
    11     4    31    1
    12     5     6    1
    13     5    13    1
    14     5    32    1
    15     6     7    1
    16     6    11    1
    17     6    33    1
    18     7    10    1
    19     7    16    1
    20     7    20    1
    21     8    14    1
    22     8    18    1
    23     8    34    1
    24     9    11    1
    25     9    35    1
    26     9    36    1
    27    10    15    1
    28    10    19    1
    29    10    37    1
    30    11    38    1
    31    11    39    1
    32    12    14    1
    33    12    40    1
    34    12    41    1
    35    13    15    1
    36    13    42    1
    37    13    43    1
    38    14    44    1
    39    14    45    1
    40    15    46    1
    41    15    47    1
    42    16    21    1
    43    16    48    1
    44    16    49    1
    45    17    50    1
    46    17    51    1
    47    17    52    1
    48    18    23    1
    49    18    24    1
    50    18    53    1
    51    19    22    1
    52    19    54    1
    53    19    55    1
    54    20    56    1
    55    20    57    1
    56    20    58    1
    57    21    22    1
    58    21    59    1
    59    21    60    1
    60    22    61    1
    61    23    25    1
    62    23    62    1
    63    23    63    1
    64    24    64    1
    65    24    65    1
    66    24    66    1
    67    25    26    1
    68    25    67    1
    69    25    68    1
    70    26    27    1
    71    26    28    1
    72    27    29    1
    73    27    30    1
    74    27    70    1
    75    28    71    1
    76    28    72    1
    77    28    73    1
    78    29    75    1
    79    29    76    1
    80    29    77    1
    81    30    78    1
    82    30    79    1
    83    30    80    1
