@<TRIPOS>MOLECULE
IMPHY015793
 45 47 0 0 0
SMALL
GASTEIGER

@<TRIPOS>ATOM
      1 O           6.0682    0.5746    0.0000 O.3     1  UNL1       -0.4828
      2 O           6.0682    3.5746    0.0000 O.2     1  UNL1       -0.2917
      3 O           4.3198    3.6092    0.0000 O.3     1  UNL1       -0.5058
      4 O          10.3984   -0.9254    0.0000 O.3     1  UNL1       -0.5065
      5 O           2.5381    0.5505    0.0000 O.3     1  UNL1       -0.5065
      6 C           6.9343    1.0746    0.0000 C.3     1  UNL1        0.1322
      7 C           6.9343    2.0746    0.0000 C.3     1  UNL1        0.0520
      8 C           7.8003    0.5746    0.0000 C.ar    1  UNL1       -0.0064
      9 C           6.0682    2.5746    0.0000 C.2     1  UNL1        0.1740
     10 C           5.2022    2.0746    0.0000 C.ar    1  UNL1        0.1007
     11 C           5.2022    1.0746    0.0000 C.ar    1  UNL1        0.1389
     12 C           7.8003   -0.4254    0.0000 C.ar    1  UNL1       -0.0481
     13 C           8.6663   -0.9254    0.0000 C.ar    1  UNL1       -0.0019
     14 C           8.6663    1.0746    0.0000 C.ar    1  UNL1       -0.0516
     15 C           8.6663   -1.9254    0.0000 C.3     1  UNL1       -0.0058
     16 C           4.3083    2.6093    0.0000 C.ar    1  UNL1        0.1343
     17 C           9.5323   -0.4254    0.0000 C.ar    1  UNL1        0.1203
     18 C           4.3083    0.5399    0.0000 C.ar    1  UNL1        0.0225
     19 C           9.5323    0.5746    0.0000 C.ar    1  UNL1       -0.0195
     20 C           3.4022    1.0538    0.0000 C.ar    1  UNL1        0.1238
     21 C           3.4022    2.0954    0.0000 C.ar    1  UNL1        0.0222
     22 C           7.8003   -2.4254    0.0000 C.2     1  UNL1       -0.0809
     23 C           7.8003   -3.4254    0.0000 C.2     1  UNL1       -0.0793
     24 C           6.9343   -3.9254    0.0000 C.3     1  UNL1       -0.0440
     25 C           8.6663   -3.9254    0.0000 C.3     1  UNL1       -0.0440
     26 H           6.9343    0.4546    0.0000 H       1  UNL1        0.0789
     27 H           7.5449    1.9670    0.0000 H       1  UNL1        0.0385
     28 H           7.1463    2.6572    0.0000 H       1  UNL1        0.0385
     29 H           7.2634   -0.7354    0.0000 H       1  UNL1        0.0625
     30 H           8.6663    1.6946    0.0000 H       1  UNL1        0.0623
     31 H           8.8784   -2.5080    0.0000 H       1  UNL1        0.0357
     32 H           9.2769   -1.8177    0.0000 H       1  UNL1        0.0357
     33 H           4.3154   -0.0800    0.0000 H       1  UNL1        0.0691
     34 H          10.0693    0.8846    0.0000 H       1  UNL1        0.0654
     35 H           2.8665    2.4075    0.0000 H       1  UNL1        0.0691
     36 H           7.2634   -2.1154    0.0000 H       1  UNL1        0.0575
     37 H           3.7865    3.9254    0.0000 H       1  UNL1        0.2922
     38 H          10.9353   -0.6154    0.0000 H       1  UNL1        0.2921
     39 H           6.6243   -3.3885    0.0000 H       1  UNL1        0.0274
     40 H           6.3973   -4.2354    0.0000 H       1  UNL1        0.0274
     41 H           7.2443   -4.4623    0.0000 H       1  UNL1        0.0274
     42 H           8.3563   -4.4623    0.0000 H       1  UNL1        0.0274
     43 H           9.2033   -4.2354    0.0000 H       1  UNL1        0.0274
     44 H           8.9763   -3.3885    0.0000 H       1  UNL1        0.0274
     45 H           2.0000    0.8584    0.0000 H       1  UNL1        0.2921
@<TRIPOS>BOND
     1     1     6    1
     2     1    11    1
     3     2     9    2
     4     3    16    1
     5     3    37    1
     6     4    17    1
     7     4    38    1
     8     5    20    1
     9     5    45    1
    10     6     7    1
    11     6     8    1
    12     6    26    1
    13     7     9    1
    14     7    27    1
    15     7    28    1
    16     8    12   ar
    17     8    14   ar
    18     9    10    1
    19    10    11   ar
    20    10    16   ar
    21    11    18   ar
    22    12    13   ar
    23    12    29    1
    24    13    15    1
    25    13    17   ar
    26    14    19   ar
    27    14    30    1
    28    15    22    1
    29    15    31    1
    30    15    32    1
    31    16    21   ar
    32    17    19   ar
    33    18    20   ar
    34    18    33    1
    35    19    34    1
    36    20    21   ar
    37    21    35    1
    38    22    23    2
    39    22    36    1
    40    23    24    1
    41    23    25    1
    42    24    39    1
    43    24    40    1
    44    24    41    1
    45    25    42    1
    46    25    43    1
    47    25    44    1
