@<TRIPOS>MOLECULE
IMPHY014627
 36 35 0 0 0
SMALL
GASTEIGER

@<TRIPOS>ATOM
      1 O           4.9641    1.1625    0.0000 O.3     1  UNL1       -0.3832
      2 O           4.0981    0.6625    0.0000 O.3     1  UNL1       -0.3826
      3 O           6.3301    1.7965    0.0000 O.3     1  UNL1       -0.3863
      4 O           3.2320    0.1625    0.0000 O.3     1  UNL1       -0.3787
      5 O           8.0622    0.7965    0.0000 O.3     1  UNL1       -0.3894
      6 O           2.0000   -0.7035    0.0000 O.2     1  UNL1       -0.2979
      7 C           5.4641    0.2965    0.0000 C.3     1  UNL1        0.1227
      8 C           4.5981   -0.2035    0.0000 C.3     1  UNL1        0.1288
      9 C           3.7320   -0.7035    0.0000 C.3     1  UNL1        0.1486
     10 C           6.3301    0.7965    0.0000 C.3     1  UNL1        0.1119
     11 C           5.9641   -0.5695    0.0000 C.3     1  UNL1       -0.0307
     12 C           5.0981   -1.0695    0.0000 C.3     1  UNL1       -0.0301
     13 C           7.1962    0.2965    0.0000 C.3     1  UNL1        0.0811
     14 C           4.2320   -1.5695    0.0000 C.3     1  UNL1       -0.0265
     15 C           2.8660   -1.2035    0.0000 C.2     1  UNL1        0.1543
     16 C           7.1962   -0.7035    0.0000 C.3     1  UNL1       -0.0364
     17 H           6.8671    1.1065    0.0000 H       1  UNL1        0.0649
     18 H           6.5841   -0.5695    0.0000 H       1  UNL1        0.0259
     19 H           5.3815   -0.7816    0.0000 H       1  UNL1        0.0259
     20 H           6.0718   -1.1801    0.0000 H       1  UNL1        0.0259
     21 H           5.0981   -1.6895    0.0000 H       1  UNL1        0.0259
     22 H           5.6807   -1.2816    0.0000 H       1  UNL1        0.0259
     23 H           4.4992   -1.2300    0.0000 H       1  UNL1        0.0259
     24 H           7.7331   -0.0135    0.0000 H       1  UNL1        0.0617
     25 H           3.9220   -2.1065    0.0000 H       1  UNL1        0.0262
     26 H           4.7070   -1.9681    0.0000 H       1  UNL1        0.0262
     27 H           4.7070   -1.1710    0.0000 H       1  UNL1        0.0262
     28 H           5.2741    1.6994    0.0000 H       1  UNL1        0.2104
     29 H           3.5612    0.9726    0.0000 H       1  UNL1        0.2104
     30 H           2.8660   -1.8235    0.0000 H       1  UNL1        0.1058
     31 H           7.7331   -1.0135    0.0000 H       1  UNL1        0.0255
     32 H           6.5856   -0.5959    0.0000 H       1  UNL1        0.0255
     33 H           6.9841   -1.2861    0.0000 H       1  UNL1        0.0255
     34 H           6.8671    2.1065    0.0000 H       1  UNL1        0.2100
     35 H           2.6120    0.1625    0.0000 H       1  UNL1        0.2108
     36 H           8.5991    0.4865    0.0000 H       1  UNL1        0.2099
@<TRIPOS>BOND
     1     7     1    1
     2     1    28    1
     3     8     2    1
     4     2    29    1
     5    10     3    1
     6     3    34    1
     7     9     4    1
     8     4    35    1
     9     5    13    1
    10     5    36    1
    11     6    15    2
    12     7     8    1
    13     7    10    1
    14     7    11    1
    15     8     9    1
    16     8    12    1
    17     9    14    1
    18     9    15    1
    19    10    13    1
    20    10    17    1
    21    11    18    1
    22    11    19    1
    23    11    20    1
    24    12    21    1
    25    12    22    1
    26    12    23    1
    27    13    16    1
    28    13    24    1
    29    14    25    1
    30    14    26    1
    31    14    27    1
    32    15    30    1
    33    16    31    1
    34    16    32    1
    35    16    33    1
