@<TRIPOS>MOLECULE
IMPHY003034
 72 76 0 0 0
SMALL
GASTEIGER

@<TRIPOS>ATOM
      1 O           5.1350   -1.2485    0.0000 O.3     1  UNL1       -0.3313
      2 O          13.0650    2.8264    0.0000 O.3     1  UNL1       -0.3313
      3 O           6.8671   -1.2485    0.0000 O.3     1  UNL1       -0.4607
      4 O           3.4030   -3.2485    0.0000 O.3     1  UNL1       -0.3865
      5 O           5.1350   -4.2485    0.0000 O.3     1  UNL1       -0.3864
      6 O          15.5650    1.9604    0.0000 O.3     1  UNL1       -0.3865
      7 O          14.5650    0.2283    0.0000 O.3     1  UNL1       -0.3864
      8 O          11.5650    1.9604    0.0000 O.3     1  UNL1       -0.4572
      9 O           6.8671   -3.2485    0.0000 O.3     1  UNL1       -0.3829
     10 O          12.5650    0.2283    0.0000 O.3     1  UNL1       -0.3829
     11 O           2.5369   -1.7485    0.0000 O.3     1  UNL1       -0.3924
     12 O          15.5650    3.6924    0.0000 O.3     1  UNL1       -0.3924
     13 O           8.4701    1.9186    0.0000 O.3     1  UNL1       -0.4513
     14 O          12.5650    3.6924    0.0000 O.3     1  UNL1       -0.5033
     15 O           6.4084    3.4677    0.0000 O.2     1  UNL1       -0.2832
     16 C           4.2690   -2.7485    0.0000 C.3     1  UNL1        0.1120
     17 C           5.1350   -3.2485    0.0000 C.3     1  UNL1        0.1152
     18 C          14.5650    1.9604    0.0000 C.3     1  UNL1        0.1120
     19 C          14.0650    1.0944    0.0000 C.3     1  UNL1        0.1152
     20 C           4.2690   -1.7485    0.0000 C.3     1  UNL1        0.1140
     21 C           6.0010   -2.7485    0.0000 C.3     1  UNL1        0.1454
     22 C          14.0650    2.8264    0.0000 C.3     1  UNL1        0.1140
     23 C          13.0650    1.0944    0.0000 C.3     1  UNL1        0.1454
     24 C           6.0010   -1.7485    0.0000 C.3     1  UNL1        0.2308
     25 C          12.5650    1.9604    0.0000 C.3     1  UNL1        0.2310
     26 C           3.4030   -1.2485    0.0000 C.3     1  UNL1        0.0731
     27 C          14.5650    3.6924    0.0000 C.3     1  UNL1        0.0731
     28 C           6.8671   -0.2485    0.0000 C.ar    1  UNL1        0.1275
     29 C          11.0650    2.8264    0.0000 C.ar    1  UNL1        0.1657
     30 C           7.7331    0.2515    0.0000 C.ar    1  UNL1        0.0232
     31 C           6.0010    0.2515    0.0000 C.ar    1  UNL1       -0.0189
     32 C          10.0650    2.8264    0.0000 C.ar    1  UNL1       -0.0089
     33 C           7.7331    1.2515    0.0000 C.ar    1  UNL1        0.1430
     34 C          11.5650    3.6924    0.0000 C.ar    1  UNL1        0.1586
     35 C           6.8671    1.7515    0.0000 C.ar    1  UNL1        0.0678
     36 C           9.5650    3.6924    0.0000 C.ar    1  UNL1       -0.0177
     37 C           6.0010    1.2515    0.0000 C.ar    1  UNL1       -0.0438
     38 C           8.0650    2.8264    0.0000 C.2     1  UNL1        0.1761
     39 C           7.0763    2.7234    0.0000 C.2     1  UNL1        0.2315
     40 C          11.0650    4.5585    0.0000 C.ar    1  UNL1       -0.0160
     41 C           8.5650    3.6924    0.0000 C.2     1  UNL1       -0.0082
     42 C          10.0650    4.5585    0.0000 C.ar    1  UNL1       -0.0508
     43 H           4.2690   -3.3685    0.0000 H       1  UNL1        0.0647
     44 H           5.6720   -3.5585    0.0000 H       1  UNL1        0.0648
     45 H          14.8750    2.4973    0.0000 H       1  UNL1        0.0647
     46 H          13.7550    0.5574    0.0000 H       1  UNL1        0.0648
     47 H           4.2690   -1.1285    0.0000 H       1  UNL1        0.0647
     48 H           6.5380   -2.4385    0.0000 H       1  UNL1        0.0683
     49 H          13.7550    3.3634    0.0000 H       1  UNL1        0.0647
     50 H          12.4450    1.0944    0.0000 H       1  UNL1        0.0683
     51 H           6.0010   -1.1285    0.0000 H       1  UNL1        0.1084
     52 H          12.2550    2.4973    0.0000 H       1  UNL1        0.1084
     53 H           3.8015   -0.7735    0.0000 H       1  UNL1        0.0584
     54 H           3.0044   -0.7735    0.0000 H       1  UNL1        0.0584
     55 H          14.6727    4.3030    0.0000 H       1  UNL1        0.0584
     56 H          13.9824    3.9045    0.0000 H       1  UNL1        0.0584
     57 H           4.5981   -4.5585    0.0000 H       1  UNL1        0.2100
     58 H           3.4030   -3.8685    0.0000 H       1  UNL1        0.2100
     59 H          15.8750    1.4235    0.0000 H       1  UNL1        0.2100
     60 H          15.1850    0.2283    0.0000 H       1  UNL1        0.2100
     61 H           6.8671   -3.8685    0.0000 H       1  UNL1        0.2102
     62 H          12.8750   -0.3086    0.0000 H       1  UNL1        0.2102
     63 H           2.0000   -1.4385    0.0000 H       1  UNL1        0.2095
     64 H          15.8750    4.2294    0.0000 H       1  UNL1        0.2095
     65 H           8.2700   -0.0585    0.0000 H       1  UNL1        0.0691
     66 H           5.4641   -0.0585    0.0000 H       1  UNL1        0.0654
     67 H           9.7550    2.2895    0.0000 H       1  UNL1        0.0661
     68 H           5.4641    1.5615    0.0000 H       1  UNL1        0.0627
     69 H           8.2550    4.2294    0.0000 H       1  UNL1        0.0661
     70 H          11.3750    5.0954    0.0000 H       1  UNL1        0.0655
     71 H           9.7550    5.0954    0.0000 H       1  UNL1        0.0625
     72 H          12.8750    4.2294    0.0000 H       1  UNL1        0.2923
@<TRIPOS>BOND
     1     1    20    1
     2     1    24    1
     3     2    22    1
     4     2    25    1
     5     3    24    1
     6     3    28    1
     7     4    16    1
     8     4    58    1
     9     5    17    1
    10     5    57    1
    11     6    18    1
    12     6    59    1
    13     7    19    1
    14     7    60    1
    15     8    25    1
    16     8    29    1
    17     9    21    1
    18     9    61    1
    19    10    23    1
    20    10    62    1
    21    11    26    1
    22    11    63    1
    23    12    27    1
    24    12    64    1
    25    13    33    1
    26    13    38    1
    27    14    34    1
    28    14    72    1
    29    15    39    2
    30    16    17    1
    31    16    20    1
    32    16    43    1
    33    17    21    1
    34    17    44    1
    35    18    19    1
    36    18    22    1
    37    18    45    1
    38    19    23    1
    39    19    46    1
    40    20    26    1
    41    20    47    1
    42    21    24    1
    43    21    48    1
    44    22    27    1
    45    22    49    1
    46    23    25    1
    47    23    50    1
    48    24    51    1
    49    25    52    1
    50    26    53    1
    51    26    54    1
    52    27    55    1
    53    27    56    1
    54    28    30   ar
    55    28    31   ar
    56    29    32   ar
    57    29    34   ar
    58    30    33   ar
    59    30    65    1
    60    31    37   ar
    61    31    66    1
    62    32    36   ar
    63    32    67    1
    64    33    35   ar
    65    34    40   ar
    66    35    37   ar
    67    35    39    1
    68    36    41    1
    69    36    42   ar
    70    37    68    1
    71    38    39    1
    72    38    41    2
    73    40    42   ar
    74    40    70    1
    75    41    69    1
    76    42    71    1
