@<TRIPOS>MOLECULE
IMPHY006800
 86 90 0 0 0
SMALL
GASTEIGER

@<TRIPOS>ATOM
      1 O          10.5680   -0.0328    0.0000 O.2     1  UNL1       -0.2916
      2 O          14.2741   -3.1153    0.0000 O.3     1  UNL1       -0.5064
      3 O           9.8100   -0.3832    0.0000 O.3     1  UNL1       -0.5063
      4 O           9.8100   -3.8473    0.0000 O.3     1  UNL1       -0.5063
      5 O          10.6500    1.2038    0.0000 O.3     1  UNL1       -0.5057
      6 O          16.0062   -0.1153    0.0000 O.3     1  UNL1       -0.5066
      7 O          13.9052    2.3886    0.0000 O.3     1  UNL1       -0.5064
      8 O           5.3100   -1.2492    0.0000 O.3     1  UNL1       -0.5061
      9 O           2.3100   -2.9813    0.0000 O.3     1  UNL1       -0.5066
     10 C          11.6760   -1.6153    0.0000 C.3     1  UNL1        0.0399
     11 C          12.5421   -2.1153    0.0000 C.3     1  UNL1        0.0019
     12 C          10.8100   -2.1153    0.0000 C.3     1  UNL1        0.0198
     13 C          12.5421   -3.1153    0.0000 C.3     1  UNL1       -0.0244
     14 C          11.6760   -3.6153    0.0000 C.2     1  UNL1       -0.0753
     15 C          10.8100   -3.1153    0.0000 C.2     1  UNL1       -0.0767
     16 C          13.4081   -1.6153    0.0000 C.ar    1  UNL1       -0.0016
     17 C          11.3340   -0.6756    0.0000 C.2     1  UNL1        0.1712
     18 C           9.8100   -2.1153    0.0000 C.ar    1  UNL1        0.0429
     19 C          11.6760   -4.6153    0.0000 C.3     1  UNL1       -0.0437
     20 C          11.9768    0.0905    0.0000 C.ar    1  UNL1        0.0596
     21 C          14.2741   -2.1153    0.0000 C.ar    1  UNL1        0.1238
     22 C          13.4081   -0.6153    0.0000 C.ar    1  UNL1       -0.0514
     23 C           9.3100   -1.2492    0.0000 C.ar    1  UNL1        0.1246
     24 C           9.3100   -2.9812    0.0000 C.ar    1  UNL1        0.1246
     25 C          11.6348    1.0301    0.0000 C.ar    1  UNL1        0.1342
     26 C          15.1401   -1.6153    0.0000 C.ar    1  UNL1        0.0216
     27 C           8.3100   -1.2492    0.0000 C.ar    1  UNL1       -0.0125
     28 C           8.3100   -2.9813    0.0000 C.ar    1  UNL1       -0.0125
     29 C          14.2741   -0.1153    0.0000 C.ar    1  UNL1       -0.0197
     30 C          12.9616   -0.0832    0.0000 C.ar    1  UNL1       -0.0443
     31 C           7.8100   -2.1153    0.0000 C.ar    1  UNL1       -0.0181
     32 C          15.1401   -0.6153    0.0000 C.ar    1  UNL1        0.1203
     33 C          12.2776    1.7962    0.0000 C.ar    1  UNL1        0.0398
     34 C          13.6044    0.6829    0.0000 C.ar    1  UNL1       -0.0190
     35 C          13.2624    1.6226    0.0000 C.ar    1  UNL1        0.1238
     36 C          11.9355    2.7359    0.0000 C.3     1  UNL1       -0.0023
     37 C           6.8100   -2.1153    0.0000 C.2     1  UNL1       -0.0537
     38 C          10.9507    2.9095    0.0000 C.2     1  UNL1       -0.0807
     39 C           6.3100   -2.9813    0.0000 C.2     1  UNL1       -0.0505
     40 C          10.6087    3.8492    0.0000 C.2     1  UNL1       -0.0793
     41 C           5.3100   -2.9813    0.0000 C.ar    1  UNL1        0.0167
     42 C          11.2515    4.6153    0.0000 C.3     1  UNL1       -0.0440
     43 C           9.6239    4.0229    0.0000 C.3     1  UNL1       -0.0440
     44 C           4.8100   -2.1153    0.0000 C.ar    1  UNL1        0.1274
     45 C           4.8100   -3.8473    0.0000 C.ar    1  UNL1       -0.0477
     46 C           3.8100   -2.1153    0.0000 C.ar    1  UNL1        0.0219
     47 C           3.8100   -3.8473    0.0000 C.ar    1  UNL1       -0.0194
     48 C           3.3100   -2.9813    0.0000 C.ar    1  UNL1        0.1204
     49 H          12.1510   -1.2168    0.0000 H       1  UNL1        0.0396
     50 H          13.2782   -2.5403    0.0000 H       1  UNL1        0.0360
     51 H          10.5900   -1.2942    0.0000 H       1  UNL1        0.0401
     52 H          12.7541   -3.6979    0.0000 H       1  UNL1        0.0316
     53 H          13.1526   -3.0076    0.0000 H       1  UNL1        0.0316
     54 H          10.2731   -3.4253    0.0000 H       1  UNL1        0.0578
     55 H          11.0560   -4.6153    0.0000 H       1  UNL1        0.0274
     56 H          11.6760   -5.2353    0.0000 H       1  UNL1        0.0274
     57 H          12.2960   -4.6153    0.0000 H       1  UNL1        0.0274
     58 H          12.8711   -0.3053    0.0000 H       1  UNL1        0.0623
     59 H          15.6771   -1.9253    0.0000 H       1  UNL1        0.0691
     60 H           8.0000   -0.7123    0.0000 H       1  UNL1        0.0660
     61 H           8.0000   -3.5182    0.0000 H       1  UNL1        0.0660
     62 H          14.2741    0.5047    0.0000 H       1  UNL1        0.0654
     63 H          13.1737   -0.6658    0.0000 H       1  UNL1        0.0627
     64 H          14.8110   -3.4253    0.0000 H       1  UNL1        0.2921
     65 H           9.5000    0.1537    0.0000 H       1  UNL1        0.2921
     66 H           9.5000   -4.3842    0.0000 H       1  UNL1        0.2921
     67 H          14.2150    0.5752    0.0000 H       1  UNL1        0.0654
     68 H          12.5461    2.8436    0.0000 H       1  UNL1        0.0358
     69 H          11.9355    3.3559    0.0000 H       1  UNL1        0.0358
     70 H           6.5000   -1.5783    0.0000 H       1  UNL1        0.0624
     71 H          10.4379    1.7864    0.0000 H       1  UNL1        0.2922
     72 H          16.5431   -0.4253    0.0000 H       1  UNL1        0.2921
     73 H          10.5522    2.4346    0.0000 H       1  UNL1        0.0575
     74 H           6.6200   -3.5182    0.0000 H       1  UNL1        0.0625
     75 H          14.5157    2.2809    0.0000 H       1  UNL1        0.2921
     76 H           9.7316    4.6335    0.0000 H       1  UNL1        0.0274
     77 H           9.0133    4.1305    0.0000 H       1  UNL1        0.0274
     78 H           9.5162    3.4123    0.0000 H       1  UNL1        0.0274
     79 H          11.7264    4.2168    0.0000 H       1  UNL1        0.0274
     80 H          11.6500    5.0902    0.0000 H       1  UNL1        0.0274
     81 H          10.7766    5.0138    0.0000 H       1  UNL1        0.0274
     82 H           5.1200   -4.3843    0.0000 H       1  UNL1        0.0626
     83 H           3.5000   -1.5783    0.0000 H       1  UNL1        0.0691
     84 H           3.5000   -4.3843    0.0000 H       1  UNL1        0.0654
     85 H           5.0000   -0.7123    0.0000 H       1  UNL1        0.2922
     86 H           2.0000   -3.5182    0.0000 H       1  UNL1        0.2921
@<TRIPOS>BOND
     1     1    17    2
     2     2    21    1
     3     2    64    1
     4     3    23    1
     5     3    65    1
     6     4    24    1
     7     4    66    1
     8     5    25    1
     9     5    71    1
    10     6    32    1
    11     6    72    1
    12     7    35    1
    13     7    75    1
    14     8    44    1
    15     8    85    1
    16     9    48    1
    17     9    86    1
    18    10    11    1
    19    10    12    1
    20    10    17    1
    21    10    49    1
    22    11    13    1
    23    11    16    1
    24    11    50    1
    25    12    15    1
    26    12    18    1
    27    12    51    1
    28    13    14    1
    29    13    52    1
    30    13    53    1
    31    14    15    2
    32    14    19    1
    33    15    54    1
    34    16    21   ar
    35    16    22   ar
    36    17    20    1
    37    18    23   ar
    38    18    24   ar
    39    19    55    1
    40    19    56    1
    41    19    57    1
    42    20    25   ar
    43    20    30   ar
    44    21    26   ar
    45    22    29   ar
    46    22    58    1
    47    23    27   ar
    48    24    28   ar
    49    25    33   ar
    50    26    32   ar
    51    26    59    1
    52    27    31   ar
    53    27    60    1
    54    28    31   ar
    55    28    61    1
    56    29    32   ar
    57    29    62    1
    58    30    34   ar
    59    30    63    1
    60    31    37    1
    61    33    35   ar
    62    33    36    1
    63    34    35   ar
    64    34    67    1
    65    36    38    1
    66    36    68    1
    67    36    69    1
    68    37    39    2
    69    37    70    1
    70    38    40    2
    71    38    73    1
    72    39    41    1
    73    39    74    1
    74    40    42    1
    75    40    43    1
    76    41    44   ar
    77    41    45   ar
    78    42    79    1
    79    42    80    1
    80    42    81    1
    81    43    76    1
    82    43    77    1
    83    43    78    1
    84    44    46   ar
    85    45    47   ar
    86    45    82    1
    87    46    48   ar
    88    46    83    1
    89    47    48   ar
    90    47    84    1
