@<TRIPOS>MOLECULE
IMPHY000946
 35 37 0 0 0
SMALL
GASTEIGER

@<TRIPOS>ATOM
      1 O           5.5443   -1.0547    0.0000 O.2     1  UNL1       -0.4546
      2 O           3.7320    1.7500    0.0000 O.3     1  UNL1       -0.4943
      3 O           2.0000   -1.2500    0.0000 O.3     1  UNL1       -0.4949
      4 O           9.1279    1.4820    0.0000 O.3     1  UNL1       -0.5066
      5 O           9.1279   -1.9820    0.0000 O.3     1  UNL1       -0.5066
      6 C           4.5981    0.2500    0.0000 C.ar    1  UNL1        0.0626
      7 C           4.5981   -0.7500    0.0000 C.ar    1  UNL1        0.1427
      8 C           6.1279   -0.2500    0.0000 C.ar    1  UNL1        0.1366
      9 C           5.5443    0.5547    0.0000 C.ar    1  UNL1       -0.0046
     10 C           3.7320    0.7500    0.0000 C.ar    1  UNL1        0.1343
     11 C           7.1279   -0.2500    0.0000 C.ar    1  UNL1        0.0242
     12 C           3.7320   -1.2500    0.0000 C.ar    1  UNL1        0.0232
     13 C           2.8660   -0.7500    0.0000 C.ar    1  UNL1        0.1271
     14 C           2.8660    0.2500    0.0000 C.ar    1  UNL1        0.0226
     15 C           7.6279   -1.1160    0.0000 C.ar    1  UNL1       -0.0093
     16 C           7.6279    0.6160    0.0000 C.ar    1  UNL1       -0.0093
     17 C           8.6279    0.6160    0.0000 C.ar    1  UNL1        0.1210
     18 C           8.6279   -1.1160    0.0000 C.ar    1  UNL1        0.1210
     19 C           9.1279   -0.2500    0.0000 C.ar    1  UNL1        0.0213
     20 C           2.8660    2.2500    0.0000 C.3     1  UNL1        0.0788
     21 C           2.0000   -2.2500    0.0000 C.3     1  UNL1        0.0788
     22 H           5.7369    1.1440    0.0000 H       1  UNL1        0.0663
     23 H           3.7320   -1.8700    0.0000 H       1  UNL1        0.0691
     24 H           2.3291    0.5600    0.0000 H       1  UNL1        0.0691
     25 H           7.3179   -1.6530    0.0000 H       1  UNL1        0.0661
     26 H           7.3179    1.1530    0.0000 H       1  UNL1        0.0661
     27 H           9.7479   -0.2500    0.0000 H       1  UNL1        0.0691
     28 H           3.1760    2.7869    0.0000 H       1  UNL1        0.0660
     29 H           2.3291    2.5600    0.0000 H       1  UNL1        0.0660
     30 H           2.5560    1.7131    0.0000 H       1  UNL1        0.0660
     31 H           1.3800   -2.2500    0.0000 H       1  UNL1        0.0660
     32 H           2.0000   -2.8700    0.0000 H       1  UNL1        0.0660
     33 H           2.6200   -2.2500    0.0000 H       1  UNL1        0.0660
     34 H           9.7479    1.4820    0.0000 H       1  UNL1        0.2921
     35 H           9.7479   -1.9820    0.0000 H       1  UNL1        0.2921
@<TRIPOS>BOND
     1     1     7   ar
     2     1     8   ar
     3     2    10    1
     4     2    20    1
     5     3    13    1
     6     3    21    1
     7     4    17    1
     8     4    34    1
     9     5    18    1
    10     5    35    1
    11     6     7   ar
    12     6     9   ar
    13     6    10   ar
    14     7    12   ar
    15     8     9   ar
    16     8    11    1
    17     9    22    1
    18    10    14   ar
    19    11    15   ar
    20    11    16   ar
    21    12    13   ar
    22    12    23    1
    23    13    14   ar
    24    14    24    1
    25    15    18   ar
    26    15    25    1
    27    16    17   ar
    28    16    26    1
    29    17    19   ar
    30    18    19   ar
    31    19    27    1
    32    20    28    1
    33    20    29    1
    34    20    30    1
    35    21    31    1
    36    21    32    1
    37    21    33    1
