@<TRIPOS>MOLECULE
IMPHY013413
 73 77 0 0 0
SMALL
GASTEIGER

@<TRIPOS>ATOM
      1 O           5.1350   -3.5289    0.0000 O.3     1  UNL1       -0.3313
      2 O          11.2384    4.0235    0.0000 O.3     1  UNL1       -0.3313
      3 O           6.8671   -3.5289    0.0000 O.3     1  UNL1       -0.4606
      4 O           5.1350   -6.5289    0.0000 O.3     1  UNL1       -0.3864
      5 O           3.4030   -5.5289    0.0000 O.3     1  UNL1       -0.3865
      6 O          12.1141    6.5202    0.0000 O.3     1  UNL1       -0.3865
      7 O          13.8423    5.5135    0.0000 O.3     1  UNL1       -0.3864
      8 O          12.0987    2.5202    0.0000 O.3     1  UNL1       -0.4572
      9 O           6.8671   -5.5289    0.0000 O.3     1  UNL1       -0.3829
     10 O          13.8346    3.5135    0.0000 O.3     1  UNL1       -0.3829
     11 O           2.5369   -4.0289    0.0000 O.3     1  UNL1       -0.3924
     12 O          10.3820    6.5269    0.0000 O.3     1  UNL1       -0.3924
     13 O           8.6230   -0.4664    0.0000 O.2     1  UNL1       -0.4544
     14 O          12.0910    0.5202    0.0000 O.3     1  UNL1       -0.5033
     15 O           5.1208   -0.4498    0.0000 O.3     1  UNL1       -0.5058
     16 O           6.0308    1.0436    0.0000 O.2     1  UNL1       -0.2869
     17 C           4.2690   -5.0289    0.0000 C.3     1  UNL1        0.1120
     18 C           5.1350   -5.5289    0.0000 C.3     1  UNL1        0.1152
     19 C          12.1102    5.5202    0.0000 C.3     1  UNL1        0.1120
     20 C          12.9743    5.0168    0.0000 C.3     1  UNL1        0.1152
     21 C           4.2690   -4.0289    0.0000 C.3     1  UNL1        0.1140
     22 C           6.0010   -5.0289    0.0000 C.3     1  UNL1        0.1454
     23 C          11.2423    5.0235    0.0000 C.3     1  UNL1        0.1140
     24 C          12.9705    4.0169    0.0000 C.3     1  UNL1        0.1454
     25 C           6.0010   -4.0289    0.0000 C.3     1  UNL1        0.2308
     26 C          12.1025    3.5202    0.0000 C.3     1  UNL1        0.2310
     27 C           3.4030   -3.5289    0.0000 C.3     1  UNL1        0.0731
     28 C          10.3782    5.5269    0.0000 C.3     1  UNL1        0.0731
     29 C           6.8671   -2.5289    0.0000 C.ar    1  UNL1        0.1310
     30 C          11.2307    2.0236    0.0000 C.ar    1  UNL1        0.1652
     31 C           7.7671   -2.0046    0.0000 C.ar    1  UNL1        0.0235
     32 C           5.9670   -2.0046    0.0000 C.ar    1  UNL1        0.0226
     33 C          11.2269    1.0236    0.0000 C.ar    1  UNL1        0.1592
     34 C          10.3666    2.5269    0.0000 C.ar    1  UNL1       -0.0155
     35 C           7.7551   -0.9631    0.0000 C.ar    1  UNL1        0.1462
     36 C           6.8910   -0.4597    0.0000 C.ar    1  UNL1        0.1055
     37 C           9.4948    1.0302    0.0000 C.ar    1  UNL1        0.0211
     38 C           5.9790   -0.9631    0.0000 C.ar    1  UNL1        0.1347
     39 C          10.3589    0.5269    0.0000 C.ar    1  UNL1       -0.0059
     40 C           9.4987    2.0302    0.0000 C.ar    1  UNL1       -0.0474
     41 C           8.6269    0.5336    0.0000 C.ar    1  UNL1        0.1393
     42 C           6.8948    0.5403    0.0000 C.ar    1  UNL1        0.1966
     43 C           7.7628    1.0369    0.0000 C.ar    1  UNL1        0.0288
     44 H           4.2690   -5.6489    0.0000 H       1  UNL1        0.0647
     45 H           4.5981   -5.8389    0.0000 H       1  UNL1        0.0648
     46 H          11.5745    5.8322    0.0000 H       1  UNL1        0.0647
     47 H          12.9767    5.6368    0.0000 H       1  UNL1        0.0648
     48 H           4.2690   -3.4089    0.0000 H       1  UNL1        0.0647
     49 H           6.0010   -5.6489    0.0000 H       1  UNL1        0.0683
     50 H          10.7042    4.7156    0.0000 H       1  UNL1        0.0647
     51 H          13.5086    4.3248    0.0000 H       1  UNL1        0.0683
     52 H           6.0010   -3.4089    0.0000 H       1  UNL1        0.1084
     53 H          12.6383    3.2081    0.0000 H       1  UNL1        0.1084
     54 H           3.8015   -3.0540    0.0000 H       1  UNL1        0.0584
     55 H           3.0044   -3.0540    0.0000 H       1  UNL1        0.0584
     56 H           9.7680    5.6369    0.0000 H       1  UNL1        0.0584
     57 H          10.1639    4.9451    0.0000 H       1  UNL1        0.0584
     58 H           4.5981   -6.8389    0.0000 H       1  UNL1        0.2100
     59 H           3.4030   -6.1489    0.0000 H       1  UNL1        0.2100
     60 H          12.6522    6.8281    0.0000 H       1  UNL1        0.2100
     61 H          13.8447    6.1335    0.0000 H       1  UNL1        0.2100
     62 H           6.8671   -6.1489    0.0000 H       1  UNL1        0.2102
     63 H          14.3727    3.8214    0.0000 H       1  UNL1        0.2102
     64 H           2.0000   -3.7189    0.0000 H       1  UNL1        0.2095
     65 H           9.8463    6.8389    0.0000 H       1  UNL1        0.2095
     66 H           8.3064   -2.3105    0.0000 H       1  UNL1        0.0691
     67 H           5.4277   -2.3105    0.0000 H       1  UNL1        0.0691
     68 H          10.3690    3.1469    0.0000 H       1  UNL1        0.0655
     69 H          10.3565   -0.0931    0.0000 H       1  UNL1        0.0662
     70 H           8.9630    2.3423    0.0000 H       1  UNL1        0.0626
     71 H           7.7652    1.6569    0.0000 H       1  UNL1        0.0693
     72 H          12.0886   -0.0998    0.0000 H       1  UNL1        0.2923
     73 H           4.5792   -0.7515    0.0000 H       1  UNL1        0.2922
@<TRIPOS>BOND
     1     1    21    1
     2     1    25    1
     3     2    23    1
     4     2    26    1
     5    25     3    1
     6     3    29    1
     7     4    18    1
     8     4    58    1
     9    17     5    1
    10     5    59    1
    11    19     6    1
    12     6    60    1
    13     7    20    1
    14     7    61    1
    15    26     8    1
    16     8    30    1
    17     9    22    1
    18     9    62    1
    19    10    24    1
    20    10    63    1
    21    11    27    1
    22    11    64    1
    23    12    28    1
    24    12    65    1
    25    13    35   ar
    26    13    41   ar
    27    14    33    1
    28    14    72    1
    29    15    38    1
    30    15    73    1
    31    16    42    2
    32    17    18    1
    33    17    21    1
    34    17    44    1
    35    18    22    1
    36    18    45    1
    37    19    20    1
    38    19    23    1
    39    19    46    1
    40    20    24    1
    41    20    47    1
    42    21    27    1
    43    21    48    1
    44    22    25    1
    45    22    49    1
    46    23    28    1
    47    23    50    1
    48    24    26    1
    49    24    51    1
    50    25    52    1
    51    26    53    1
    52    27    54    1
    53    27    55    1
    54    28    56    1
    55    28    57    1
    56    29    31   ar
    57    29    32   ar
    58    30    33   ar
    59    30    34   ar
    60    31    35   ar
    61    31    66    1
    62    32    38   ar
    63    32    67    1
    64    33    39   ar
    65    34    40   ar
    66    34    68    1
    67    35    36   ar
    68    36    38   ar
    69    36    42   ar
    70    37    39   ar
    71    37    40   ar
    72    37    41    1
    73    39    69    1
    74    40    70    1
    75    41    43   ar
    76    42    43   ar
    77    43    71    1
