@<TRIPOS>MOLECULE
IMPHY014126
 58 59 0 0 0
SMALL
GASTEIGER

@<TRIPOS>ATOM
      1 O           3.7320   -1.5458    0.0000 O.3     1  UNL1       -0.4468
      2 O           5.0464    0.6272    0.0000 O.3     1  UNL1       -0.4570
      3 O           8.2030   -1.1152    0.0000 O.3     1  UNL1       -0.4500
      4 O           5.5640   -1.3047    0.0000 O.2     1  UNL1       -0.2463
      5 O           7.2791   -0.7325    0.0000 O.2     1  UNL1       -0.2883
      6 O           7.7547   -2.7882    0.0000 O.2     1  UNL1       -0.2453
      7 O           2.8660   -0.0459    0.0000 O.2     1  UNL1       -0.2511
      8 N           8.8680    2.0812    0.0000 N.3     1  UNL1       -0.3016
      9 C           4.8569   -2.0118    0.0000 C.3     1  UNL1        0.0107
     10 C           4.5981   -1.0459    0.0000 C.3     1  UNL1        0.2089
     11 C           5.8228   -2.2706    0.0000 C.3     1  UNL1       -0.0145
     12 C           4.1498   -2.7189    0.0000 C.3     1  UNL1       -0.0579
     13 C           3.7320   -0.5459    0.0000 C.3     1  UNL1       -0.0139
     14 C           7.9441   -0.1493    0.0000 C.3     1  UNL1        0.1663
     15 C           5.3052   -0.3388    0.0000 C.2     1  UNL1        0.3518
     16 C           8.8680    0.2334    0.0000 C.3     1  UNL1        0.0045
     17 C           6.5299   -1.5635    0.0000 C.2     1  UNL1        0.0328
     18 C           9.2507    1.1573    0.0000 C.3     1  UNL1        0.0027
     19 C           6.6376    1.1573    0.0000 C.2     1  UNL1        0.0331
     20 C           7.0203    0.2334    0.0000 C.2     1  UNL1        0.2025
     21 C           7.9441    2.4638    0.0000 C.3     1  UNL1        0.0176
     22 C           5.6716    1.4161    0.0000 C.3     1  UNL1        0.1207
     23 C           7.4958   -1.8223    0.0000 C.2     1  UNL1        0.3355
     24 C           7.0203    2.0812    0.0000 C.2     1  UNL1       -0.0602
     25 C           6.2711   -0.5976    0.0000 C.2     1  UNL1       -0.0771
     26 C           9.5751    2.7882    0.0000 C.3     1  UNL1       -0.0124
     27 C           2.8660   -1.0459    0.0000 C.2     1  UNL1        0.3050
     28 C           5.7796   -0.2534    0.0000 C.3     1  UNL1       -0.0461
     29 C           2.0000   -1.5459    0.0000 C.3     1  UNL1        0.0333
     30 H           5.0174   -2.6107    0.0000 H       1  UNL1        0.0345
     31 H           5.5608   -2.8325    0.0000 H       1  UNL1        0.0319
     32 H           6.3307   -2.6262    0.0000 H       1  UNL1        0.0319
     33 H           3.7114   -2.2805    0.0000 H       1  UNL1        0.0234
     34 H           3.7114   -3.1573    0.0000 H       1  UNL1        0.0234
     35 H           4.5882   -3.1573    0.0000 H       1  UNL1        0.0234
     36 H           4.0420   -0.0089    0.0000 H       1  UNL1        0.0274
     37 H           3.1951   -0.2359    0.0000 H       1  UNL1        0.0274
     38 H           3.4220   -1.0828    0.0000 H       1  UNL1        0.0274
     39 H           8.7065   -0.5252    0.0000 H       1  UNL1        0.0819
     40 H           8.9490   -0.3813    0.0000 H       1  UNL1        0.0318
     41 H           9.4827    0.1525    0.0000 H       1  UNL1        0.0318
     42 H           9.7426    0.7798    0.0000 H       1  UNL1        0.0428
     43 H           9.7426    1.5347    0.0000 H       1  UNL1        0.0428
     44 H           8.3216    2.9557    0.0000 H       1  UNL1        0.0470
     45 H           7.5667    2.9557    0.0000 H       1  UNL1        0.0470
     46 H           5.9119    1.9876    0.0000 H       1  UNL1        0.0750
     47 H           5.1380    1.7317    0.0000 H       1  UNL1        0.0750
     48 H           6.5819    2.5196    0.0000 H       1  UNL1        0.0590
     49 H           6.4316    0.0013    0.0000 H       1  UNL1        0.0574
     50 H          10.0135    2.3498    0.0000 H       1  UNL1        0.0391
     51 H          10.0135    3.2267    0.0000 H       1  UNL1        0.0391
     52 H           9.1367    3.2267    0.0000 H       1  UNL1        0.0391
     53 H           6.1352    0.2544    0.0000 H       1  UNL1        0.0272
     54 H           5.2717    0.1022    0.0000 H       1  UNL1        0.0272
     55 H           5.4240   -0.7613    0.0000 H       1  UNL1        0.0272
     56 H           1.6900   -1.0089    0.0000 H       1  UNL1        0.0342
     57 H           1.4631   -1.8559    0.0000 H       1  UNL1        0.0342
     58 H           2.3100   -2.0828    0.0000 H       1  UNL1        0.0342
@<TRIPOS>BOND
     1    10     1    1
     2     1    27    1
     3     2    15    1
     4     2    22    1
     5     3    14    1
     6     3    23    1
     7     4    15    2
     8     5    20    2
     9     6    23    2
    10     7    27    2
    11     8    18    1
    12     8    21    1
    13     8    26    1
    14     9    10    1
    15     9    11    1
    16     9    12    1
    17     9    30    1
    18    10    13    1
    19    10    15    1
    20    11    17    1
    21    11    31    1
    22    11    32    1
    23    12    33    1
    24    12    34    1
    25    12    35    1
    26    13    36    1
    27    13    37    1
    28    13    38    1
    29    14    16    1
    30    14    20    1
    31    14    39    1
    32    16    18    1
    33    16    40    1
    34    16    41    1
    35    17    23    1
    36    17    25    2
    37    18    42    1
    38    18    43    1
    39    19    20    1
    40    19    22    1
    41    19    24    2
    42    21    24    1
    43    21    44    1
    44    21    45    1
    45    22    46    1
    46    22    47    1
    47    24    48    1
    48    25    28    1
    49    25    49    1
    50    26    50    1
    51    26    51    1
    52    26    52    1
    53    27    29    1
    54    28    53    1
    55    28    54    1
    56    28    55    1
    57    29    56    1
    58    29    57    1
    59    29    58    1
