@<TRIPOS>MOLECULE
IMPHY009428
 20 21 0 0 0
SMALL
GASTEIGER

@<TRIPOS>ATOM
      1 S           3.7320   -1.5000    0.0000 S.2     1  UNL1       -0.0152
      2 N           2.8660    0.0000    0.0000 N.am    1  UNL1       -0.3129
      3 N           4.5981    0.0000    0.0000 N.ar    1  UNL1       -0.2845
      4 N           6.1279    0.5000    0.0000 N.ar    1  UNL1       -0.2434
      5 C           3.7320    1.5000    0.0000 C.3     1  UNL1        0.0054
      6 C           2.8660    1.0000    0.0000 C.3     1  UNL1        0.0190
      7 C           4.5981    1.0000    0.0000 C.ar    1  UNL1        0.0463
      8 C           3.7320   -0.5000    0.0000 C.2     1  UNL1        0.1532
      9 C           5.5443    1.3047    0.0000 C.ar    1  UNL1        0.0491
     10 C           2.0000   -0.5000    0.0000 C.3     1  UNL1        0.0024
     11 C           5.5443   -0.3047    0.0000 C.ar    1  UNL1        0.1019
     12 H           4.1306    1.9750    0.0000 H       1  UNL1        0.0343
     13 H           3.3335    1.9750    0.0000 H       1  UNL1        0.0343
     14 H           2.6540    1.5826    0.0000 H       1  UNL1        0.0468
     15 H           2.2554    0.8923    0.0000 H       1  UNL1        0.0468
     16 H           5.7369    1.8940    0.0000 H       1  UNL1        0.0848
     17 H           1.6900    0.0369    0.0000 H       1  UNL1        0.0428
     18 H           1.4631   -0.8100    0.0000 H       1  UNL1        0.0428
     19 H           2.3100   -1.0369    0.0000 H       1  UNL1        0.0428
     20 H           5.7369   -0.8941    0.0000 H       1  UNL1        0.1033
@<TRIPOS>BOND
     1     1     8    2
     2     2     6    1
     3     2     8    1
     4     2    10    1
     5     3     7   ar
     6     3     8    1
     7     3    11   ar
     8     4     9   ar
     9     4    11   ar
    10     5     6    1
    11     5     7    1
    12     5    12    1
    13     5    13    1
    14     6    14    1
    15     6    15    1
    16     7     9   ar
    17     9    16    1
    18    10    17    1
    19    10    18    1
    20    10    19    1
    21    11    20    1
