@<TRIPOS>MOLECULE
IMPHY010919
 44 46 0 0 0
SMALL
GASTEIGER

@<TRIPOS>ATOM
      1 O           7.3424    1.4219    0.0000 O.3     1  UNL1       -0.4842
      2 O           9.9260    0.6172    0.0000 O.3     1  UNL1       -0.4516
      3 O           3.7702    1.6518    0.0000 O.2     1  UNL1       -0.4220
      4 O           9.9260   -1.1149    0.0000 O.2     1  UNL1       -0.2453
      5 O           2.0000    1.6413    0.0000 O.2     1  UNL1       -0.2452
      6 C           7.9260    0.6172    0.0000 C.3     1  UNL1        0.1432
      7 C           8.9260    0.6172    0.0000 C.3     1  UNL1        0.1450
      8 C           7.3424   -0.1876    0.0000 C.3     1  UNL1        0.0168
      9 C           6.3961    0.1172    0.0000 C.ar    1  UNL1       -0.0013
     10 C           6.3961    1.1172    0.0000 C.ar    1  UNL1        0.1279
     11 C           8.9260   -0.3828    0.0000 C.3     1  UNL1       -0.0215
     12 C           8.9260    1.6172    0.0000 C.3     1  UNL1       -0.0215
     13 C           5.5301   -0.3828    0.0000 C.ar    1  UNL1       -0.0443
     14 C           5.5301    1.6172    0.0000 C.ar    1  UNL1        0.0234
     15 C           4.6641    0.1172    0.0000 C.ar    1  UNL1        0.0181
     16 C           4.6641    1.1172    0.0000 C.ar    1  UNL1        0.1425
     17 C          10.4260   -0.2489    0.0000 C.2     1  UNL1        0.3352
     18 C           3.7702   -0.4175    0.0000 C.ar    1  UNL1       -0.0443
     19 C          11.4260   -0.2489    0.0000 C.2     1  UNL1        0.0294
     20 C           2.8641    0.0963    0.0000 C.ar    1  UNL1        0.0236
     21 C           2.8641    1.1380    0.0000 C.ar    1  UNL1        0.3372
     22 C          11.9260    0.6172    0.0000 C.3     1  UNL1       -0.0333
     23 C          11.9260   -1.1149    0.0000 C.2     1  UNL1       -0.0774
     24 C          12.9260   -1.1149    0.0000 C.3     1  UNL1       -0.0461
     25 H           8.3122    1.3744    0.0000 H       1  UNL1        0.0776
     26 H           7.0913   -0.7545    0.0000 H       1  UNL1        0.0351
     27 H           7.8798   -0.4968    0.0000 H       1  UNL1        0.0351
     28 H           8.3060   -0.3828    0.0000 H       1  UNL1        0.0269
     29 H           8.9260   -1.0028    0.0000 H       1  UNL1        0.0269
     30 H           9.5460   -0.3828    0.0000 H       1  UNL1        0.0269
     31 H           9.5460    1.6172    0.0000 H       1  UNL1        0.0269
     32 H           8.9260    2.2372    0.0000 H       1  UNL1        0.0269
     33 H           8.3060    1.6172    0.0000 H       1  UNL1        0.0269
     34 H           5.5301   -1.0028    0.0000 H       1  UNL1        0.0628
     35 H           5.5301    2.2372    0.0000 H       1  UNL1        0.0691
     36 H           3.7773   -1.0375    0.0000 H       1  UNL1        0.0627
     37 H           2.3284   -0.2157    0.0000 H       1  UNL1        0.0689
     38 H          12.4629    0.3072    0.0000 H       1  UNL1        0.0280
     39 H          12.2360    1.1541    0.0000 H       1  UNL1        0.0280
     40 H          11.3890    0.9272    0.0000 H       1  UNL1        0.0280
     41 H          11.6160   -1.6518    0.0000 H       1  UNL1        0.0574
     42 H          12.9260   -1.7349    0.0000 H       1  UNL1        0.0272
     43 H          13.5460   -1.1149    0.0000 H       1  UNL1        0.0272
     44 H          12.9260   -0.4949    0.0000 H       1  UNL1        0.0272
@<TRIPOS>BOND
     1     1     6    1
     2     1    10    1
     3     2     7    1
     4     2    17    1
     5     3    16   ar
     6     3    21   ar
     7     4    17    2
     8     5    21    2
     9     6     7    1
    10     6     8    1
    11     6    25    1
    12     7    11    1
    13     7    12    1
    14     8     9    1
    15     8    26    1
    16     8    27    1
    17     9    10   ar
    18     9    13   ar
    19    10    14   ar
    20    11    28    1
    21    11    29    1
    22    11    30    1
    23    12    31    1
    24    12    32    1
    25    12    33    1
    26    13    15   ar
    27    13    34    1
    28    14    16   ar
    29    14    35    1
    30    15    16   ar
    31    15    18   ar
    32    17    19    1
    33    18    20   ar
    34    18    36    1
    35    19    22    1
    36    19    23    2
    37    20    21   ar
    38    20    37    1
    39    22    38    1
    40    22    39    1
    41    22    40    1
    42    23    24    1
    43    23    41    1
    44    24    42    1
    45    24    43    1
    46    24    44    1
