@<TRIPOS>MOLECULE
IMPHY014459
 23 24 0 0 0
SMALL
GASTEIGER

@<TRIPOS>ATOM
      1 O           5.4920   -1.3797    0.0000 O.2     1  UNL1       -0.4569
      2 O           3.7320    1.6550    0.0000 O.3     1  UNL1       -0.5058
      3 O           2.0000   -1.3450    0.0000 O.3     1  UNL1       -0.5065
      4 O           5.4804    1.6896    0.0000 O.2     1  UNL1       -0.2869
      5 O           8.1301   -0.8725    0.0000 O.3     1  UNL1       -0.3873
      6 C           4.5981    0.1550    0.0000 C.ar    1  UNL1        0.1054
      7 C           4.5981   -0.8450    0.0000 C.ar    1  UNL1        0.1459
      8 C           6.3981   -0.8658    0.0000 C.ar    1  UNL1        0.1345
      9 C           5.4920    0.6897    0.0000 C.ar    1  UNL1        0.1963
     10 C           3.7320    0.6550    0.0000 C.ar    1  UNL1        0.1347
     11 C           3.7320   -1.3450    0.0000 C.ar    1  UNL1        0.0231
     12 C           6.3981    0.1758    0.0000 C.ar    1  UNL1        0.0263
     13 C           2.8660   -0.8450    0.0000 C.ar    1  UNL1        0.1239
     14 C           2.8660    0.1550    0.0000 C.ar    1  UNL1        0.0223
     15 C           7.2622   -1.3692    0.0000 C.3     1  UNL1        0.1020
     16 H           3.7320   -1.9650    0.0000 H       1  UNL1        0.0691
     17 H           6.9338    0.4879    0.0000 H       1  UNL1        0.0690
     18 H           2.3291    0.4650    0.0000 H       1  UNL1        0.0691
     19 H           6.8618   -1.8426    0.0000 H       1  UNL1        0.0638
     20 H           7.6589   -1.8456    0.0000 H       1  UNL1        0.0638
     21 H           3.1951    1.9650    0.0000 H       1  UNL1        0.2922
     22 H           2.0000   -1.9650    0.0000 H       1  UNL1        0.2921
     23 H           8.6659   -1.1846    0.0000 H       1  UNL1        0.2100
@<TRIPOS>BOND
     1     1     7   ar
     2     1     8   ar
     3     2    10    1
     4     2    21    1
     5     3    13    1
     6     3    22    1
     7     4     9    2
     8     5    15    1
     9     5    23    1
    10     6     7   ar
    11     6     9   ar
    12     6    10   ar
    13     7    11   ar
    14     8    12   ar
    15     8    15    1
    16     9    12   ar
    17    10    14   ar
    18    11    13   ar
    19    11    16    1
    20    12    17    1
    21    13    14   ar
    22    14    18    1
    23    15    19    1
    24    15    20    1
