@<TRIPOS>MOLECULE
IMPHY004826
 66 67 0 0 0
SMALL
GASTEIGER

@<TRIPOS>ATOM
      1 O           7.9298   -0.5718    0.0000 O.3     1  UNL1       -0.3874
      2 O           8.8247    1.9180    0.0000 O.3     1  UNL1       -0.3892
      3 O           3.5731    1.9313    0.0000 O.2     1  UNL1       -0.2758
      4 N           6.1712    0.4313    0.0000 N.3     1  UNL1       -0.2897
      5 N           3.9318   -1.7934    0.0000 N.3     1  UNL1       -0.3159
      6 N           2.7071    0.4313    0.0000 N.am    1  UNL1       -0.3153
      7 C           7.0812    0.9381    0.0000 C.3     1  UNL1        0.0574
      8 C           5.3052    0.9313    0.0000 C.3     1  UNL1        0.0227
      9 C           7.9414    0.4282    0.0000 C.3     1  UNL1        0.1000
     10 C           5.2891    1.9728    0.0000 C.3     1  UNL1       -0.0186
     11 C           6.1712   -0.5687    0.0000 C.3     1  UNL1        0.0010
     12 C           8.8131    0.9181    0.0000 C.3     1  UNL1        0.0828
     13 C           7.0892    1.9797    0.0000 C.2     1  UNL1       -0.0684
     14 C           4.4392    0.4313    0.0000 C.3     1  UNL1        0.0398
     15 C           6.1872    2.5006    0.0000 C.2     1  UNL1       -0.0849
     16 C           5.7638   -1.5523    0.0000 C.3     1  UNL1       -0.0276
     17 C           9.6733    0.4081    0.0000 C.3     1  UNL1       -0.0244
     18 C           4.8978   -2.0523    0.0000 C.3     1  UNL1       -0.0029
     19 C          10.5451    0.8981    0.0000 C.3     1  UNL1       -0.0506
     20 C           3.5731    0.9313    0.0000 C.2     1  UNL1        0.2145
     21 C          11.4053    0.3881    0.0000 C.3     1  UNL1       -0.0532
     22 C           3.2247   -2.5006    0.0000 C.3     1  UNL1       -0.0041
     23 C           2.7071   -0.5687    0.0000 C.3     1  UNL1        0.0116
     24 C           2.2588   -2.2417    0.0000 C.3     1  UNL1       -0.0390
     25 C           2.0000   -1.2758    0.0000 C.3     1  UNL1       -0.0362
     26 C          12.2770    0.8781    0.0000 C.3     1  UNL1       -0.0559
     27 C          13.1372    0.3681    0.0000 C.3     1  UNL1       -0.0653
     28 H           7.8214    1.3560    0.0000 H       1  UNL1        0.0533
     29 H           4.5658    1.3506    0.0000 H       1  UNL1        0.0470
     30 H           7.4009    0.1244    0.0000 H       1  UNL1        0.0638
     31 H           5.0711    2.5532    0.0000 H       1  UNL1        0.0323
     32 H           4.6800    1.8573    0.0000 H       1  UNL1        0.0323
     33 H           6.6096   -1.0071    0.0000 H       1  UNL1        0.0427
     34 H           5.5631   -0.4477    0.0000 H       1  UNL1        0.0427
     35 H           9.3536    1.2219    0.0000 H       1  UNL1        0.0620
     36 H           7.6274    2.2877    0.0000 H       1  UNL1        0.0585
     37 H           4.0406   -0.0437    0.0000 H       1  UNL1        0.0374
     38 H           4.8377   -0.0437    0.0000 H       1  UNL1        0.0374
     39 H           6.1848    3.1206    0.0000 H       1  UNL1        0.0570
     40 H           5.8980   -2.1576    0.0000 H       1  UNL1        0.0290
     41 H           6.3814   -1.6063    0.0000 H       1  UNL1        0.0290
     42 H           9.2693   -0.0622    0.0000 H       1  UNL1        0.0291
     43 H          10.0663   -0.0714    0.0000 H       1  UNL1        0.0291
     44 H           4.5878   -2.5892    0.0000 H       1  UNL1        0.0424
     45 H           5.3362   -2.4907    0.0000 H       1  UNL1        0.0424
     46 H          10.9491    1.3684    0.0000 H       1  UNL1        0.0266
     47 H          10.1521    1.3776    0.0000 H       1  UNL1        0.0266
     48 H           8.4632   -0.8880    0.0000 H       1  UNL1        0.2100
     49 H          11.0013   -0.0822    0.0000 H       1  UNL1        0.0265
     50 H          11.7983   -0.0914    0.0000 H       1  UNL1        0.0265
     51 H           9.3652    2.2218    0.0000 H       1  UNL1        0.2099
     52 H           3.7714   -1.1946    0.0000 H       1  UNL1        0.1219
     53 H           2.1702    0.7413    0.0000 H       1  UNL1        0.1487
     54 H           2.9627   -3.0625    0.0000 H       1  UNL1        0.0424
     55 H           3.7326   -2.8562    0.0000 H       1  UNL1        0.0424
     56 H           3.0171   -1.1056    0.0000 H       1  UNL1        0.0462
     57 H           3.3060   -0.4082    0.0000 H       1  UNL1        0.0462
     58 H           1.6412   -2.2958    0.0000 H       1  UNL1        0.0278
     59 H           2.2048   -2.8594    0.0000 H       1  UNL1        0.0278
     60 H           1.6444   -0.7679    0.0000 H       1  UNL1        0.0281
     61 H           1.4381   -1.5378    0.0000 H       1  UNL1        0.0281
     62 H          12.6810    1.3484    0.0000 H       1  UNL1        0.0263
     63 H          11.8840    1.3576    0.0000 H       1  UNL1        0.0263
     64 H          12.8210   -0.1652    0.0000 H       1  UNL1        0.0230
     65 H          13.6705    0.0519    0.0000 H       1  UNL1        0.0230
     66 H          13.4534    0.9014    0.0000 H       1  UNL1        0.0230
@<TRIPOS>BOND
     1     9     1    1
     2     1    48    1
     3    12     2    1
     4     2    51    1
     5     3    20    2
     6     4     7    1
     7     4     8    1
     8     4    11    1
     9     5    18    1
    10     5    22    1
    11     5    52    1
    12     6    20   am
    13     6    23    1
    14     6    53    1
    15     7     9    1
    16     7    13    1
    17     7    28    1
    18     8    10    1
    19     8    14    1
    20     8    29    1
    21     9    12    1
    22     9    30    1
    23    10    15    1
    24    10    31    1
    25    10    32    1
    26    11    16    1
    27    11    33    1
    28    11    34    1
    29    12    17    1
    30    12    35    1
    31    13    15    2
    32    13    36    1
    33    14    20    1
    34    14    37    1
    35    14    38    1
    36    15    39    1
    37    16    18    1
    38    16    40    1
    39    16    41    1
    40    17    19    1
    41    17    42    1
    42    17    43    1
    43    18    44    1
    44    18    45    1
    45    19    21    1
    46    19    46    1
    47    19    47    1
    48    21    26    1
    49    21    49    1
    50    21    50    1
    51    22    24    1
    52    22    54    1
    53    22    55    1
    54    23    25    1
    55    23    56    1
    56    23    57    1
    57    24    25    1
    58    24    58    1
    59    24    59    1
    60    25    60    1
    61    25    61    1
    62    26    27    1
    63    26    62    1
    64    26    63    1
    65    27    64    1
    66    27    65    1
    67    27    66    1
