@<TRIPOS>MOLECULE
IMPHY002222
 90 93 0 0 0
SMALL
GASTEIGER

@<TRIPOS>ATOM
      1 O           7.1688   -1.9897    0.0000 O.3     1  UNL1       -0.3640
      2 O           8.0300   -0.4974    0.0000 O.3     1  UNL1       -0.4582
      3 O           5.8638   -2.8349    0.0000 O.3     1  UNL1       -0.4584
      4 O           3.7197   -0.0182    0.0000 O.3     1  UNL1       -0.4607
      5 O           8.4990    0.5248    0.0000 O.3     1  UNL1       -0.3839
      6 O           4.0925    1.1336    0.0000 O.3     1  UNL1       -0.4567
      7 O           4.7681    2.7646    0.0000 O.3     1  UNL1       -0.4533
      8 O           8.8110    3.5456    0.0000 O.3     1  UNL1       -0.4570
      9 O           9.7031   -0.0491    0.0000 O.2     1  UNL1       -0.2512
     10 O           4.1475   -3.0676    0.0000 O.2     1  UNL1       -0.2512
     11 O           3.0384   -1.6107    0.0000 O.2     1  UNL1       -0.2512
     12 O           4.0925    2.8656    0.0000 O.2     1  UNL1       -0.2512
     13 O           5.9928    3.9893    0.0000 O.2     1  UNL1       -0.2511
     14 O          10.0358    2.3208    0.0000 O.2     1  UNL1       -0.2511
     15 C           6.3991   -0.1730    0.0000 C.3     1  UNL1        0.0459
     16 C           6.5509   -1.2035    0.0000 C.3     1  UNL1        0.1364
     17 C           5.4752    0.2097    0.0000 C.3     1  UNL1        0.0549
     18 C           7.3229    0.2097    0.0000 C.3     1  UNL1        0.1388
     19 C           5.7295   -1.8439    0.0000 C.3     1  UNL1        0.1377
     20 C           7.7056    1.1336    0.0000 C.3     1  UNL1        0.1156
     21 C           4.6391   -0.4116    0.0000 C.3     1  UNL1        0.1158
     22 C           7.5408   -1.0615    0.0000 C.3     1  UNL1        0.0816
     23 C           5.0925    1.1336    0.0000 C.3     1  UNL1        0.1527
     24 C           4.7671   -1.4453    0.0000 C.3     1  UNL1        0.0251
     25 C           7.3229    2.0575    0.0000 C.3     1  UNL1        0.0224
     26 C           5.4752    2.0575    0.0000 C.3     1  UNL1        0.1624
     27 C           4.5513    0.5924    0.0000 C.3     1  UNL1       -0.0522
     28 C           6.3991    2.4402    0.0000 C.2     1  UNL1       -0.0151
     29 C           8.3787    1.8753    0.0000 C.3     1  UNL1        0.0215
     30 C           8.1039    2.8384    0.0000 C.3     1  UNL1        0.1270
     31 C           7.1408    3.1133    0.0000 C.2     1  UNL1       -0.0291
     32 C           7.6206    3.1683    0.0000 C.3     1  UNL1       -0.0532
     33 C           8.4338    2.3551    0.0000 C.3     1  UNL1       -0.0532
     34 C           6.9133    4.0870    0.0000 C.3     1  UNL1       -0.0399
     35 C           8.9960   -0.7562    0.0000 C.2     1  UNL1        0.3043
     36 C           5.0728   -3.4467    0.0000 C.2     1  UNL1        0.3043
     37 C           2.9194   -0.6178    0.0000 C.2     1  UNL1        0.3042
     38 C           3.5925    1.9996    0.0000 C.2     1  UNL1        0.3043
     39 C           5.0269    3.7305    0.0000 C.2     1  UNL1        0.3046
     40 C           9.2548   -1.7221    0.0000 C.3     1  UNL1        0.0332
     41 C           5.2072   -4.4376    0.0000 C.3     1  UNL1        0.0332
     42 C           9.7770    3.2867    0.0000 C.2     1  UNL1        0.3045
     43 C           2.0000   -0.2244    0.0000 C.3     1  UNL1        0.0332
     44 C           2.5925    1.9996    0.0000 C.3     1  UNL1        0.0332
     45 C           4.3198    4.4376    0.0000 C.3     1  UNL1        0.0333
     46 C          10.4841    3.9938    0.0000 C.3     1  UNL1        0.0333
     47 H           7.1844   -0.4983    0.0000 H       1  UNL1        0.0375
     48 H           7.9310    0.3307    0.0000 H       1  UNL1        0.0767
     49 H           5.2383   -2.2223    0.0000 H       1  UNL1        0.0765
     50 H           4.1436   -0.7843    0.0000 H       1  UNL1        0.0742
     51 H           8.1476   -1.1887    0.0000 H       1  UNL1        0.0590
     52 H           7.5607   -0.4418    0.0000 H       1  UNL1        0.0590
     53 H           4.7480    1.6491    0.0000 H       1  UNL1        0.0782
     54 H           4.1479   -1.4151    0.0000 H       1  UNL1        0.0338
     55 H           4.6314   -2.0503    0.0000 H       1  UNL1        0.0338
     56 H           5.5961    2.6656    0.0000 H       1  UNL1        0.0820
     57 H           4.7886    1.1652    0.0000 H       1  UNL1        0.0238
     58 H           3.9785    0.8297    0.0000 H       1  UNL1        0.0238
     59 H           4.3140    0.0196    0.0000 H       1  UNL1        0.0238
     60 H           8.7532    1.3812    0.0000 H       1  UNL1        0.0334
     61 H           8.9334    2.1523    0.0000 H       1  UNL1        0.0334
     62 H           8.7041    2.6828    0.0000 H       1  UNL1        0.0783
     63 H           8.2195    3.0078    0.0000 H       1  UNL1        0.0239
     64 H           7.7810    3.7672    0.0000 H       1  UNL1        0.0239
     65 H           7.0217    3.3288    0.0000 H       1  UNL1        0.0239
     66 H           8.5942    1.7562    0.0000 H       1  UNL1        0.0239
     67 H           9.0326    2.5156    0.0000 H       1  UNL1        0.0239
     68 H           8.2733    2.9540    0.0000 H       1  UNL1        0.0239
     69 H           9.0718    0.7621    0.0000 H       1  UNL1        0.2104
     70 H           7.5170    4.2281    0.0000 H       1  UNL1        0.0276
     71 H           6.7722    4.6908    0.0000 H       1  UNL1        0.0276
     72 H           6.3095    3.9460    0.0000 H       1  UNL1        0.0276
     73 H           8.6559   -1.8826    0.0000 H       1  UNL1        0.0342
     74 H           9.4153   -2.3210    0.0000 H       1  UNL1        0.0342
     75 H           9.8537   -1.5617    0.0000 H       1  UNL1        0.0342
     76 H           4.5928   -4.5209    0.0000 H       1  UNL1        0.0342
     77 H           5.2904   -5.0520    0.0000 H       1  UNL1        0.0342
     78 H           5.8215   -4.3543    0.0000 H       1  UNL1        0.0342
     79 H           2.2439    0.3456    0.0000 H       1  UNL1        0.0342
     80 H           1.4300    0.0194    0.0000 H       1  UNL1        0.0342
     81 H           1.7561   -0.7945    0.0000 H       1  UNL1        0.0342
     82 H           2.5925    2.6196    0.0000 H       1  UNL1        0.0342
     83 H           1.9725    1.9996    0.0000 H       1  UNL1        0.0342
     84 H           2.5925    1.3796    0.0000 H       1  UNL1        0.0342
     85 H           4.7582    4.8760    0.0000 H       1  UNL1        0.0342
     86 H           3.8814    4.8760    0.0000 H       1  UNL1        0.0342
     87 H           3.8814    3.9992    0.0000 H       1  UNL1        0.0342
     88 H          10.9225    3.5554    0.0000 H       1  UNL1        0.0342
     89 H          10.9225    4.4322    0.0000 H       1  UNL1        0.0342
     90 H          10.0457    4.4322    0.0000 H       1  UNL1        0.0342
@<TRIPOS>BOND
     1    16     1    1
     2     1    22    1
     3    18     2    1
     4     2    35    1
     5    19     3    1
     6     3    36    1
     7    21     4    1
     8     4    37    1
     9    20     5    1
    10     5    69    1
    11    23     6    1
    12     6    38    1
    13    26     7    1
    14     7    39    1
    15    30     8    1
    16     8    42    1
    17     9    35    2
    18    10    36    2
    19    11    37    2
    20    12    38    2
    21    13    39    2
    22    14    42    2
    23    15    16    1
    24    15    17    1
    25    15    18    1
    26    15    47    1
    27    16    19    1
    28    16    22    1
    29    17    21    1
    30    17    23    1
    31    17    27    1
    32    18    20    1
    33    18    48    1
    34    19    24    1
    35    19    49    1
    36    20    25    1
    37    20    29    1
    38    21    24    1
    39    21    50    1
    40    22    51    1
    41    22    52    1
    42    23    26    1
    43    23    53    1
    44    24    54    1
    45    24    55    1
    46    25    28    1
    47    25    32    1
    48    25    33    1
    49    26    28    1
    50    26    56    1
    51    27    57    1
    52    27    58    1
    53    27    59    1
    54    28    31    2
    55    29    30    1
    56    29    60    1
    57    29    61    1
    58    30    31    1
    59    30    62    1
    60    31    34    1
    61    32    63    1
    62    32    64    1
    63    32    65    1
    64    33    66    1
    65    33    67    1
    66    33    68    1
    67    34    70    1
    68    34    71    1
    69    34    72    1
    70    35    40    1
    71    36    41    1
    72    37    43    1
    73    38    44    1
    74    39    45    1
    75    40    73    1
    76    40    74    1
    77    40    75    1
    78    41    76    1
    79    41    77    1
    80    41    78    1
    81    42    46    1
    82    43    79    1
    83    43    80    1
    84    43    81    1
    85    44    82    1
    86    44    83    1
    87    44    84    1
    88    45    85    1
    89    45    86    1
    90    45    87    1
    91    46    88    1
    92    46    89    1
    93    46    90    1
