@<TRIPOS>MOLECULE
IMPHY001399
 49 50 0 0 0
SMALL
GASTEIGER

@<TRIPOS>ATOM
      1 O           6.4103    1.3647    0.0000 O.3     1  UNL1       -0.4531
      2 O           4.5981   -1.4400    0.0000 O.3     1  UNL1       -0.4570
      3 O           7.9939    0.5600    0.0000 O.2     1  UNL1       -0.2453
      4 O           3.7320    4.0600    0.0000 O.2     1  UNL1       -0.2921
      5 O           2.8660   -1.4400    0.0000 O.2     1  UNL1       -0.2453
      6 C           5.4641    0.0600    0.0000 C.3     1  UNL1        0.0683
      7 C           4.5981   -0.4400    0.0000 C.3     1  UNL1        0.1177
      8 C           5.4641    1.0600    0.0000 C.3     1  UNL1        0.1325
      9 C           3.7320    0.0600    0.0000 C.3     1  UNL1        0.0060
     10 C           6.4103   -0.2447    0.0000 C.2     1  UNL1        0.0400
     11 C           4.5981    1.5600    0.0000 C.2     1  UNL1       -0.0370
     12 C           6.9939    0.5600    0.0000 C.2     1  UNL1        0.3357
     13 C           3.7320    1.0600    0.0000 C.2     1  UNL1       -0.0726
     14 C           4.5981    2.5600    0.0000 C.2     1  UNL1       -0.0082
     15 C           6.7210   -1.1952    0.0000 C.2     1  UNL1       -0.0882
     16 C           2.8660    1.5600    0.0000 C.2     1  UNL1       -0.0775
     17 C           2.8660    2.5600    0.0000 C.3     1  UNL1        0.0285
     18 C           3.7320    3.0600    0.0000 C.2     1  UNL1        0.1625
     19 C           3.7320    2.0600    0.0000 C.3     1  UNL1       -0.0437
     20 C           3.7320   -1.9400    0.0000 C.2     1  UNL1        0.3349
     21 C           5.4641    3.0600    0.0000 C.3     1  UNL1       -0.0366
     22 C           3.7320   -2.9400    0.0000 C.2     1  UNL1        0.0293
     23 C           4.5981   -3.4400    0.0000 C.3     1  UNL1       -0.0333
     24 C           2.8660   -3.4400    0.0000 C.2     1  UNL1       -0.0774
     25 C           2.0000   -2.9400    0.0000 C.3     1  UNL1       -0.0461
     26 H           5.5540   -0.7852    0.0000 H       1  UNL1        0.0427
     27 H           5.1350   -0.7500    0.0000 H       1  UNL1        0.0744
     28 H           5.5540    1.9052    0.0000 H       1  UNL1        0.0787
     29 H           3.1215    0.1677    0.0000 H       1  UNL1        0.0346
     30 H           3.5200   -0.5226    0.0000 H       1  UNL1        0.0346
     31 H           4.3860    0.9774    0.0000 H       1  UNL1        0.0612
     32 H           6.3069   -1.6567    0.0000 H       1  UNL1        0.0540
     33 H           7.3277   -1.3231    0.0000 H       1  UNL1        0.0540
     34 H           2.3291    1.2500    0.0000 H       1  UNL1        0.0576
     35 H           2.6540    3.1426    0.0000 H       1  UNL1        0.0388
     36 H           2.2554    2.4523    0.0000 H       1  UNL1        0.0388
     37 H           4.3520    2.0600    0.0000 H       1  UNL1        0.0274
     38 H           3.7320    2.6800    0.0000 H       1  UNL1        0.0274
     39 H           3.1120    2.0600    0.0000 H       1  UNL1        0.0274
     40 H           5.7741    2.5231    0.0000 H       1  UNL1        0.0279
     41 H           6.0010    3.3700    0.0000 H       1  UNL1        0.0279
     42 H           5.1541    3.5969    0.0000 H       1  UNL1        0.0279
     43 H           4.2881   -3.9769    0.0000 H       1  UNL1        0.0280
     44 H           5.1350   -3.7500    0.0000 H       1  UNL1        0.0280
     45 H           4.9081   -2.9031    0.0000 H       1  UNL1        0.0280
     46 H           2.8660   -4.0600    0.0000 H       1  UNL1        0.0574
     47 H           2.3100   -2.4031    0.0000 H       1  UNL1        0.0272
     48 H           1.4631   -2.6300    0.0000 H       1  UNL1        0.0272
     49 H           1.6900   -3.4769    0.0000 H       1  UNL1        0.0272
@<TRIPOS>BOND
     1     1     8    1
     2     1    12    1
     3     7     2    1
     4     2    20    1
     5     3    12    2
     6     4    18    2
     7     5    20    2
     8     6     7    1
     9     6     8    1
    10     6    10    1
    11     6    26    1
    12     7     9    1
    13     7    27    1
    14     8    11    1
    15     8    28    1
    16     9    13    1
    17     9    29    1
    18     9    30    1
    19    10    12    1
    20    10    15    2
    21    11    14    2
    22    11    31    1
    23    13    16    2
    24    13    19    1
    25    14    18    1
    26    14    21    1
    27    15    32    1
    28    15    33    1
    29    16    17    1
    30    16    34    1
    31    17    18    1
    32    17    35    1
    33    17    36    1
    34    19    37    1
    35    19    38    1
    36    19    39    1
    37    20    22    1
    38    21    40    1
    39    21    41    1
    40    21    42    1
    41    22    23    1
    42    22    24    2
    43    23    43    1
    44    23    44    1
    45    23    45    1
    46    24    25    1
    47    24    46    1
    48    25    47    1
    49    25    48    1
    50    25    49    1
