@<TRIPOS>MOLECULE
IMPHY009768
 38 38 0 0 0
SMALL
GASTEIGER

@<TRIPOS>ATOM
      1 O           2.0000   -2.7500    0.0000 O.2     1  UNL1       -0.2924
      2 C           3.7320   -0.7500    0.0000 C.3     1  UNL1       -0.0097
      3 C           2.8660   -1.2500    0.0000 C.3     1  UNL1        0.0169
      4 C           4.5981   -1.2500    0.0000 C.3     1  UNL1       -0.0272
      5 C           3.7320    0.2500    0.0000 C.2     1  UNL1       -0.0725
      6 C           4.5981    0.7500    0.0000 C.3     1  UNL1       -0.0283
      7 C           2.8660   -2.2500    0.0000 C.2     1  UNL1        0.1592
      8 C           4.5981   -2.2500    0.0000 C.2     1  UNL1       -0.0772
      9 C           3.7320   -2.7500    0.0000 C.2     1  UNL1       -0.0119
     10 C           4.5981    1.7500    0.0000 C.3     1  UNL1       -0.0308
     11 C           2.8660    0.7500    0.0000 C.2     1  UNL1       -0.0992
     12 C           3.7320   -3.7500    0.0000 C.3     1  UNL1       -0.0367
     13 C           5.4641    2.2500    0.0000 C.2     1  UNL1       -0.0850
     14 C           5.4641    3.2500    0.0000 C.2     1  UNL1       -0.0796
     15 C           6.3301    3.7500    0.0000 C.3     1  UNL1       -0.0440
     16 C           4.5981    3.7500    0.0000 C.3     1  UNL1       -0.0440
     17 H           4.2690   -0.4400    0.0000 H       1  UNL1        0.0353
     18 H           2.6540   -0.6674    0.0000 H       1  UNL1        0.0351
     19 H           2.2554   -1.3577    0.0000 H       1  UNL1        0.0351
     20 H           5.2087   -1.3577    0.0000 H       1  UNL1        0.0313
     21 H           4.8101   -0.6674    0.0000 H       1  UNL1        0.0313
     22 H           4.8101    0.1674    0.0000 H       1  UNL1        0.0313
     23 H           5.2087    0.8577    0.0000 H       1  UNL1        0.0313
     24 H           5.1350   -2.5600    0.0000 H       1  UNL1        0.0576
     25 H           4.3860    2.3326    0.0000 H       1  UNL1        0.0310
     26 H           3.9875    1.6423    0.0000 H       1  UNL1        0.0310
     27 H           2.8660    1.3700    0.0000 H       1  UNL1        0.0534
     28 H           2.3291    0.4400    0.0000 H       1  UNL1        0.0534
     29 H           3.1120   -3.7500    0.0000 H       1  UNL1        0.0278
     30 H           3.7320   -4.3700    0.0000 H       1  UNL1        0.0278
     31 H           4.3520   -3.7500    0.0000 H       1  UNL1        0.0278
     32 H           6.0010    1.9400    0.0000 H       1  UNL1        0.0572
     33 H           6.6401    3.2131    0.0000 H       1  UNL1        0.0274
     34 H           6.8671    4.0600    0.0000 H       1  UNL1        0.0274
     35 H           6.0201    4.2869    0.0000 H       1  UNL1        0.0274
     36 H           4.9081    4.2869    0.0000 H       1  UNL1        0.0274
     37 H           4.0611    4.0600    0.0000 H       1  UNL1        0.0274
     38 H           4.2881    3.2131    0.0000 H       1  UNL1        0.0274
@<TRIPOS>BOND
     1     1     7    2
     2     2     3    1
     3     2     4    1
     4     2     5    1
     5     2    17    1
     6     3     7    1
     7     3    18    1
     8     3    19    1
     9     4     8    1
    10     4    20    1
    11     4    21    1
    12     5     6    1
    13     5    11    2
    14     6    10    1
    15     6    22    1
    16     6    23    1
    17     7     9    1
    18     8     9    2
    19     8    24    1
    20     9    12    1
    21    10    13    1
    22    10    25    1
    23    10    26    1
    24    11    27    1
    25    11    28    1
    26    12    29    1
    27    12    30    1
    28    12    31    1
    29    13    14    2
    30    13    32    1
    31    14    15    1
    32    14    16    1
    33    15    33    1
    34    15    34    1
    35    15    35    1
    36    16    36    1
    37    16    37    1
    38    16    38    1
