@<TRIPOS>MOLECULE
IMPHY016111
 31 30 0 0 0
SMALL
GASTEIGER

@<TRIPOS>ATOM
      1 O           9.7942   -0.1900    0.0000 O.3     1  UNL1       -0.3950
      2 C           6.3301   -0.1900    0.0000 C.3     1  UNL1       -0.0527
      3 C           7.1962   -0.6900    0.0000 C.3     1  UNL1       -0.0510
      4 C           5.4641   -0.6900    0.0000 C.3     1  UNL1       -0.0496
      5 C           8.0622   -0.1900    0.0000 C.3     1  UNL1       -0.0297
      6 C           4.5981   -0.1900    0.0000 C.3     1  UNL1       -0.0348
      7 C           8.9282   -0.6900    0.0000 C.3     1  UNL1        0.0442
      8 C           3.7320   -0.6900    0.0000 C.2     1  UNL1       -0.0879
      9 C           2.8660   -0.1900    0.0000 C.2     1  UNL1       -0.0882
     10 C           2.8660    0.8100    0.0000 C.3     1  UNL1       -0.0376
     11 C           2.0000    1.3100    0.0000 C.3     1  UNL1       -0.0618
     12 H           6.7287    0.2849    0.0000 H       1  UNL1        0.0265
     13 H           5.9316    0.2849    0.0000 H       1  UNL1        0.0265
     14 H           6.7976   -1.1650    0.0000 H       1  UNL1        0.0266
     15 H           7.5947   -1.1650    0.0000 H       1  UNL1        0.0266
     16 H           5.0656   -1.1650    0.0000 H       1  UNL1        0.0268
     17 H           5.8626   -1.1650    0.0000 H       1  UNL1        0.0268
     18 H           8.4607    0.2849    0.0000 H       1  UNL1        0.0287
     19 H           7.6636    0.2849    0.0000 H       1  UNL1        0.0287
     20 H           4.9966    0.2849    0.0000 H       1  UNL1        0.0307
     21 H           4.1996    0.2849    0.0000 H       1  UNL1        0.0307
     22 H           8.5297   -1.1650    0.0000 H       1  UNL1        0.0557
     23 H           9.3267   -1.1650    0.0000 H       1  UNL1        0.0557
     24 H           3.7320   -1.3100    0.0000 H       1  UNL1        0.0569
     25 H           2.3291   -0.5000    0.0000 H       1  UNL1        0.0569
     26 H           3.4766    0.7023    0.0000 H       1  UNL1        0.0305
     27 H           3.0781    1.3926    0.0000 H       1  UNL1        0.0305
     28 H          10.3312   -0.5000    0.0000 H       1  UNL1        0.2094
     29 H           2.3100    1.8469    0.0000 H       1  UNL1        0.0233
     30 H           1.4631    1.6200    0.0000 H       1  UNL1        0.0233
     31 H           1.6900    0.7731    0.0000 H       1  UNL1        0.0233
@<TRIPOS>BOND
     1     1     7    1
     2     1    28    1
     3     2     3    1
     4     2     4    1
     5     2    12    1
     6     2    13    1
     7     3     5    1
     8     3    14    1
     9     3    15    1
    10     4     6    1
    11     4    16    1
    12     4    17    1
    13     5     7    1
    14     5    18    1
    15     5    19    1
    16     6     8    1
    17     6    20    1
    18     6    21    1
    19     7    22    1
    20     7    23    1
    21     8     9    2
    22     8    24    1
    23     9    10    1
    24     9    25    1
    25    10    11    1
    26    10    26    1
    27    10    27    1
    28    11    29    1
    29    11    30    1
    30    11    31    1
