@<TRIPOS>MOLECULE
IMPHY007460
 33 34 0 0 0
SMALL
GASTEIGER

@<TRIPOS>ATOM
      1 O           2.0000   -0.2450    0.0000 O.2     1  UNL1       -0.2960
      2 C           5.4641   -0.2450    0.0000 C.3     1  UNL1       -0.0095
      3 C           5.4641    0.7550    0.0000 C.3     1  UNL1       -0.0130
      4 C           6.3580   -0.7797    0.0000 C.3     1  UNL1       -0.0161
      5 C           4.5981    1.2550    0.0000 C.3     1  UNL1       -0.0419
      6 C           7.2641   -0.2658    0.0000 C.3     1  UNL1       -0.0425
      7 C           6.3580    1.2896    0.0000 C.2     1  UNL1       -0.0729
      8 C           7.2641    0.7758    0.0000 C.3     1  UNL1       -0.0312
      9 C           4.5981   -0.7450    0.0000 C.2     1  UNL1       -0.0736
     10 C           3.7320    0.7550    0.0000 C.3     1  UNL1       -0.0244
     11 C           3.7320   -0.2450    0.0000 C.2     1  UNL1       -0.0118
     12 C           6.3465   -1.7796    0.0000 C.2     1  UNL1       -0.0874
     13 C           6.3465    2.2896    0.0000 C.2     1  UNL1       -0.0992
     14 C           2.8660   -0.7450    0.0000 C.2     1  UNL1        0.1460
     15 C           7.2067   -2.2896    0.0000 C.2     1  UNL1       -0.1023
     16 H           5.4576   -1.0950    0.0000 H       1  UNL1        0.0355
     17 H           5.4576    1.6050    0.0000 H       1  UNL1        0.0351
     18 H           6.8920   -1.0948    0.0000 H       1  UNL1        0.0349
     19 H           4.9966    1.7299    0.0000 H       1  UNL1        0.0274
     20 H           4.1996    1.7299    0.0000 H       1  UNL1        0.0274
     21 H           7.4732   -0.8495    0.0000 H       1  UNL1        0.0274
     22 H           7.8750   -0.1597    0.0000 H       1  UNL1        0.0274
     23 H           7.8750    0.6697    0.0000 H       1  UNL1        0.0310
     24 H           7.4732    1.3595    0.0000 H       1  UNL1        0.0310
     25 H           4.5981   -1.3650    0.0000 H       1  UNL1        0.0579
     26 H           3.5200    1.3376    0.0000 H       1  UNL1        0.0314
     27 H           3.1215    0.6473    0.0000 H       1  UNL1        0.0314
     28 H           5.8060   -2.0834    0.0000 H       1  UNL1        0.0569
     29 H           6.8798    2.6058    0.0000 H       1  UNL1        0.0534
     30 H           5.8060    2.5934    0.0000 H       1  UNL1        0.0534
     31 H           2.8660   -1.3650    0.0000 H       1  UNL1        0.1078
     32 H           7.1995   -2.9095    0.0000 H       1  UNL1        0.0532
     33 H           7.7472   -1.9858    0.0000 H       1  UNL1        0.0532
@<TRIPOS>BOND
     1     1    14    2
     2     2     3    1
     3     2     4    1
     4     2     9    1
     5     2    16    1
     6     3     5    1
     7     3     7    1
     8     3    17    1
     9     4     6    1
    10     4    12    1
    11     4    18    1
    12     5    10    1
    13     5    19    1
    14     5    20    1
    15     6     8    1
    16     6    21    1
    17     6    22    1
    18     7     8    1
    19     7    13    2
    20     8    23    1
    21     8    24    1
    22     9    11    2
    23     9    25    1
    24    10    11    1
    25    10    26    1
    26    10    27    1
    27    11    14    1
    28    12    15    2
    29    12    28    1
    30    13    29    1
    31    13    30    1
    32    14    31    1
    33    15    32    1
    34    15    33    1
