@<TRIPOS>MOLECULE
IMPHY004324
 63 69 0 0 0
SMALL
GASTEIGER

@<TRIPOS>ATOM
      1 O           5.4275   -1.7756    0.0000 O.3     1  UNL1       -0.3512
      2 O           8.1221   -2.3172    0.0000 O.3     1  UNL1       -0.4539
      3 O           3.3389    1.8951    0.0000 O.3     1  UNL1       -0.3647
      4 O           6.1435    2.0702    0.0000 O.3     1  UNL1       -0.4636
      5 O           4.5896   -2.3034    0.0000 O.2     1  UNL1       -0.2881
      6 O           2.8079   -1.2929    0.0000 O.2     1  UNL1       -0.5033
      7 O           7.2161   -3.8380    0.0000 O.2     1  UNL1       -0.2478
      8 O          10.5529   -0.4109    0.0000 O.2     1  UNL1       -0.4706
      9 O           6.0560    3.8380    0.0000 O.2     1  UNL1       -0.2508
     10 C           6.3380   -1.2688    0.0000 C.3     1  UNL1        0.1287
     11 C           5.4720   -0.7688    0.0000 C.3     1  UNL1        0.0701
     12 C           7.2040   -0.7688    0.0000 C.3     1  UNL1        0.0422
     13 C           5.4720    0.2312    0.0000 C.3     1  UNL1       -0.0106
     14 C           6.3220   -2.3103    0.0000 C.3     1  UNL1        0.1861
     15 C           4.5780    0.7659    0.0000 C.3     1  UNL1        0.0627
     16 C           7.2040    0.2312    0.0000 C.3     1  UNL1       -0.0408
     17 C           6.3380    0.7312    0.0000 C.3     1  UNL1       -0.0475
     18 C           8.1140   -1.2756    0.0000 C.3     1  UNL1        0.1391
     19 C           3.6720    0.2520    0.0000 C.2     1  UNL1        0.0183
     20 C           4.5780   -1.3034    0.0000 C.2     1  UNL1        0.2061
     21 C           4.3680    1.7798    0.0000 C.3     1  UNL1        0.0827
     22 C           6.1221   -1.8945    0.0000 C.3     1  UNL1       -0.0493
     23 C           8.0701   -0.2688    0.0000 C.3     1  UNL1       -0.0531
     24 C           7.2200   -2.8380    0.0000 C.2     1  UNL1        0.3398
     25 C           5.6374    0.9684    0.0000 C.3     1  UNL1        0.1046
     26 C           2.9097    0.9528    0.0000 C.3     1  UNL1        0.0897
     27 C           3.6720   -0.7896    0.0000 C.2     1  UNL1        0.1625
     28 C           4.6907    2.8090    0.0000 C.3     1  UNL1        0.0721
     29 C           8.9742   -0.7656    0.0000 C.ar    1  UNL1        0.0310
     30 C           2.0000    1.3681    0.0000 C.3     1  UNL1       -0.0320
     31 C           2.2336    0.2160    0.0000 C.3     1  UNL1       -0.0320
     32 C           5.5855    2.9557    0.0000 C.2     1  UNL1        0.3096
     33 C           9.0672    0.2300    0.0000 C.ar    1  UNL1       -0.0172
     34 C           9.8924   -1.1618    0.0000 C.ar    1  UNL1        0.0984
     35 C          10.0429    0.4492    0.0000 C.ar    1  UNL1        0.0921
     36 H           6.2081   -0.1938    0.0000 H       1  UNL1        0.0322
     37 H           5.8886   -3.0415    0.0000 H       1  UNL1        0.0743
     38 H           7.8146    0.1236    0.0000 H       1  UNL1        0.0273
     39 H           7.4161    0.8138    0.0000 H       1  UNL1        0.0273
     40 H           6.7366    1.2062    0.0000 H       1  UNL1        0.0269
     41 H           5.9395    1.2062    0.0000 H       1  UNL1        0.0269
     42 H           8.6539   -1.5804    0.0000 H       1  UNL1        0.0793
     43 H           3.9038    2.4919    0.0000 H       1  UNL1        0.0612
     44 H           5.5852   -2.2046    0.0000 H       1  UNL1        0.0240
     45 H           6.4322   -2.4314    0.0000 H       1  UNL1        0.0240
     46 H           6.6590   -1.5845    0.0000 H       1  UNL1        0.0240
     47 H           8.3801   -0.8057    0.0000 H       1  UNL1        0.0237
     48 H           8.6070    0.0412    0.0000 H       1  UNL1        0.0237
     49 H           7.7601    0.2682    0.0000 H       1  UNL1        0.0237
     50 H           5.6265    0.3485    0.0000 H       1  UNL1        0.0707
     51 H           6.2419    0.8307    0.0000 H       1  UNL1        0.0707
     52 H           4.6863    3.4290    0.0000 H       1  UNL1        0.0403
     53 H           4.0775    2.9006    0.0000 H       1  UNL1        0.0403
     54 H           2.2575    1.9321    0.0000 H       1  UNL1        0.0260
     55 H           1.4360    1.6256    0.0000 H       1  UNL1        0.0260
     56 H           1.7425    0.8041    0.0000 H       1  UNL1        0.0260
     57 H           1.7767    0.6352    0.0000 H       1  UNL1        0.0260
     58 H           1.8144   -0.2408    0.0000 H       1  UNL1        0.0260
     59 H           2.6904   -0.2032    0.0000 H       1  UNL1        0.0260
     60 H           2.8103   -1.9129    0.0000 H       1  UNL1        0.2923
     61 H           8.6017    0.6395    0.0000 H       1  UNL1        0.0653
     62 H          10.0283   -1.7667    0.0000 H       1  UNL1        0.1033
     63 H          10.2885    1.0185    0.0000 H       1  UNL1        0.1029
@<TRIPOS>BOND
     1    10     1    1
     2     1    14    1
     3     2    18    1
     4     2    24    1
     5     3    21    1
     6     3    26    1
     7     4    25    1
     8     4    32    1
     9     5    20    2
    10     6    27    1
    11     6    60    1
    12     7    24    2
    13     8    34   ar
    14     8    35   ar
    15     9    32    2
    16    10    11    1
    17    10    12    1
    18    10    14    1
    19    11    13    1
    20    11    20    1
    21    11    22    1
    22    12    16    1
    23    12    18    1
    24    12    23    1
    25    13    15    1
    26    13    17    1
    27    13    36    1
    28    14    24    1
    29    14    37    1
    30    15    19    1
    31    15    21    1
    32    15    25    1
    33    16    17    1
    34    16    38    1
    35    16    39    1
    36    17    40    1
    37    17    41    1
    38    18    29    1
    39    18    42    1
    40    19    26    1
    41    19    27    2
    42    20    27    1
    43    21    28    1
    44    21    43    1
    45    22    44    1
    46    22    45    1
    47    22    46    1
    48    23    47    1
    49    23    48    1
    50    23    49    1
    51    25    50    1
    52    25    51    1
    53    26    30    1
    54    26    31    1
    55    28    32    1
    56    28    52    1
    57    28    53    1
    58    29    33   ar
    59    29    34   ar
    60    30    54    1
    61    30    55    1
    62    30    56    1
    63    31    57    1
    64    31    58    1
    65    31    59    1
    66    33    35   ar
    67    33    61    1
    68    34    62    1
    69    35    63    1
