@<TRIPOS>MOLECULE
IMPHY017231
 34 34 0 0 0
SMALL
GASTEIGER

@<TRIPOS>ATOM
      1 O           9.7942   -0.0600    0.0000 O.3     1  UNL1       -0.5059
      2 O           8.9282    1.4400    0.0000 O.3     1  UNL1       -0.4770
      3 O           7.1962    1.4400    0.0000 O.2     1  UNL1       -0.2450
      4 C           5.4641   -0.5600    0.0000 C.3     1  UNL1       -0.0490
      5 C           4.5981   -0.0600    0.0000 C.3     1  UNL1       -0.0528
      6 C           6.3301   -0.0600    0.0000 C.3     1  UNL1       -0.0268
      7 C           3.7320   -0.5600    0.0000 C.3     1  UNL1       -0.0533
      8 C           2.8660   -0.0600    0.0000 C.3     1  UNL1       -0.0559
      9 C           7.1962   -0.5600    0.0000 C.ar    1  UNL1       -0.0299
     10 C           8.0622   -0.0600    0.0000 C.ar    1  UNL1        0.1032
     11 C           7.1962   -1.5600    0.0000 C.ar    1  UNL1       -0.0576
     12 C           2.0000   -0.5600    0.0000 C.3     1  UNL1       -0.0653
     13 C           8.9282   -0.5600    0.0000 C.ar    1  UNL1        0.1311
     14 C           8.0622   -2.0600    0.0000 C.ar    1  UNL1       -0.0580
     15 C           8.9282   -1.5600    0.0000 C.ar    1  UNL1       -0.0193
     16 C           8.0622    0.9400    0.0000 C.2     1  UNL1        0.3406
     17 H           5.0656   -1.0350    0.0000 H       1  UNL1        0.0268
     18 H           5.8626   -1.0350    0.0000 H       1  UNL1        0.0268
     19 H           4.9966    0.4149    0.0000 H       1  UNL1        0.0265
     20 H           4.1996    0.4149    0.0000 H       1  UNL1        0.0265
     21 H           6.7287    0.4149    0.0000 H       1  UNL1        0.0313
     22 H           5.9316    0.4149    0.0000 H       1  UNL1        0.0313
     23 H           3.3335   -1.0350    0.0000 H       1  UNL1        0.0265
     24 H           4.1306   -1.0350    0.0000 H       1  UNL1        0.0265
     25 H           3.2646    0.4149    0.0000 H       1  UNL1        0.0263
     26 H           2.4675    0.4149    0.0000 H       1  UNL1        0.0263
     27 H           6.6592   -1.8700    0.0000 H       1  UNL1        0.0621
     28 H           1.6900   -0.0231    0.0000 H       1  UNL1        0.0230
     29 H           1.4631   -0.8700    0.0000 H       1  UNL1        0.0230
     30 H           2.3100   -1.0969    0.0000 H       1  UNL1        0.0230
     31 H           8.0622   -2.6800    0.0000 H       1  UNL1        0.0619
     32 H           9.4651   -1.8700    0.0000 H       1  UNL1        0.0654
     33 H          10.3312   -0.3700    0.0000 H       1  UNL1        0.2922
     34 H           8.9282    2.0600    0.0000 H       1  UNL1        0.2954
@<TRIPOS>BOND
     1     1    13    1
     2     1    33    1
     3     2    16    1
     4     2    34    1
     5     3    16    2
     6     4     5    1
     7     4     6    1
     8     4    17    1
     9     4    18    1
    10     5     7    1
    11     5    19    1
    12     5    20    1
    13     6     9    1
    14     6    21    1
    15     6    22    1
    16     7     8    1
    17     7    23    1
    18     7    24    1
    19     8    12    1
    20     8    25    1
    21     8    26    1
    22     9    10   ar
    23     9    11   ar
    24    10    13   ar
    25    10    16    1
    26    11    14   ar
    27    11    27    1
    28    12    28    1
    29    12    29    1
    30    12    30    1
    31    13    15   ar
    32    14    15   ar
    33    14    31    1
    34    15    32    1
