@<TRIPOS>MOLECULE
IMPHY002676
 37 36 0 0 0
SMALL
GASTEIGER

@<TRIPOS>ATOM
      1 S           3.4030   -1.9050    0.0000 S.O     1  UNL1        0.0191
      2 O           6.0010   -0.4050    0.0000 O.2     1  UNL1       -0.2758
      3 O           2.5369    0.5950    0.0000 O.3     1  UNL1       -0.4793
      4 OXT         3.4030    2.0950    0.0000 O.2     1  UNL1       -0.2489
      5 O           4.2690   -2.4050    0.0000 O.2     1  UNL1       -0.2575
      6 O          10.3312    1.0950    0.0000 O.3     1  UNL1       -0.4795
      7 OXT         9.4651   -0.4050    0.0000 O.2     1  UNL1       -0.2493
      8 N           5.1350    1.0950    0.0000 N.am    1  UNL1       -0.3023
      9 N           8.5991    2.0950    0.0000 N.3     1  UNL1       -0.3184
     10 CA          4.2690    0.5950    0.0000 C.3     1  UNL1        0.1210
     11 C           4.2690   -0.4050    0.0000 C.3     1  UNL1       -0.0128
     12 C           7.7331    0.5950    0.0000 C.3     1  UNL1       -0.0191
     13 C           6.8671    1.0950    0.0000 C.3     1  UNL1        0.0259
     14 C           3.4030   -0.9050    0.0000 C.3     1  UNL1        0.0253
     15 CA          8.5991    1.0950    0.0000 C.3     1  UNL1        0.1037
     16 C           6.0010    0.5950    0.0000 C.2     1  UNL1        0.2137
     17 C           3.4030    1.0950    0.0000 C.2     1  UNL1        0.3253
     18 C           9.4651    0.5950    0.0000 C.2     1  UNL1        0.3217
     19 C           2.5369   -2.4050    0.0000 C.3     1  UNL1        0.0117
     20 HA          4.2690    1.2150    0.0000 H       1  UNL1        0.0614
     21 H           4.4810   -0.9876    0.0000 H       1  UNL1        0.0297
     22 H           4.8796   -0.2973    0.0000 H       1  UNL1        0.0297
     23 H           7.3346    0.1201    0.0000 H       1  UNL1        0.0290
     24 H           8.1316    0.1201    0.0000 H       1  UNL1        0.0290
     25 H           7.2656    1.5700    0.0000 H       1  UNL1        0.0359
     26 H           6.4685    1.5700    0.0000 H       1  UNL1        0.0359
     27 H           3.1909   -0.3224    0.0000 H       1  UNL1        0.0401
     28 H           2.7924   -1.0127    0.0000 H       1  UNL1        0.0401
     29 H           5.1350    1.7150    0.0000 H       1  UNL1        0.1495
     30 HA          8.0622    1.4050    0.0000 H       1  UNL1        0.0574
     31 H1          9.1360    2.4050    0.0000 H       1  UNL1        0.1190
     32 H2          8.0622    2.4050    0.0000 H       1  UNL1        0.1190
     33 H           2.2269   -1.8681    0.0000 H       1  UNL1        0.0365
     34 H           2.0000   -2.7150    0.0000 H       1  UNL1        0.0365
     35 H           2.8469   -2.9419    0.0000 H       1  UNL1        0.0365
     36 H           2.0000    0.9050    0.0000 H       1  UNL1        0.2951
     37 H          10.8681    0.7850    0.0000 H       1  UNL1        0.2951
@<TRIPOS>BOND
     1     1     5    2
     2     1    14    1
     3     1    19    1
     4     2    16    2
     5     3    17    1
     6     3    36    1
     7     4    17    2
     8     6    18    1
     9     6    37    1
    10     7    18    2
    11     8    10    1
    12     8    16   am
    13     8    29    1
    14     9    15    1
    15     9    31    1
    16     9    32    1
    17    10    11    1
    18    10    17    1
    19    10    20    1
    20    11    14    1
    21    11    21    1
    22    11    22    1
    23    12    13    1
    24    12    15    1
    25    12    23    1
    26    12    24    1
    27    13    16    1
    28    13    25    1
    29    13    26    1
    30    14    27    1
    31    14    28    1
    32    15    18    1
    33    15    30    1
    34    19    33    1
    35    19    34    1
    36    19    35    1
