@<TRIPOS>MOLECULE
IMPHY001073
 54 56 0 0 0
SMALL
GASTEIGER

@<TRIPOS>ATOM
      1 O           7.8270    2.9607    0.0000 O.3     1  UNL1       -0.4599
      2 O           9.8389   -0.5023    0.0000 O.2     1  UNL1       -0.4919
      3 O           8.0353   -1.7189    0.0000 O.2     1  UNL1       -0.2884
      4 O           6.3270    3.8268    0.0000 O.2     1  UNL1       -0.2512
      5 O           5.4502   -3.8268    0.0000 O.3     1  UNL1       -0.4915
      6 O           3.4502   -3.8268    0.0000 O.3     1  UNL1       -0.5033
      7 C           6.5904    1.1121    0.0000 C.3     1  UNL1        0.0367
      8 C           5.1914    0.6033    0.0000 C.3     1  UNL1       -0.0234
      9 C           5.4502   -0.3627    0.0000 C.3     1  UNL1        0.0011
     10 C           6.8492    0.1462    0.0000 C.3     1  UNL1        0.0700
     11 C           7.3270    2.0947    0.0000 C.3     1  UNL1        0.1231
     12 C           6.3315    2.0780    0.0000 C.3     1  UNL1       -0.0221
     13 C           8.6236    0.8010    0.0000 C.2     1  UNL1       -0.0285
     14 C           8.0702   -0.7195    0.0000 C.2     1  UNL1        0.2042
     15 C           4.3254    1.1033    0.0000 C.3     1  UNL1       -0.0609
     16 C           4.9502   -1.2287    0.0000 C.ar    1  UNL1       -0.0395
     17 C           8.8992   -0.1603    0.0000 C.2     1  UNL1        0.1595
     18 C           5.3656    2.3368    0.0000 C.2     1  UNL1       -0.0902
     19 C           5.4502   -2.0947    0.0000 C.ar    1  UNL1       -0.0128
     20 C           3.9502   -1.2287    0.0000 C.ar    1  UNL1       -0.0546
     21 C           7.3270    3.8268    0.0000 C.2     1  UNL1        0.3043
     22 C           4.9502   -2.9607    0.0000 C.ar    1  UNL1        0.1615
     23 C           3.4502   -2.0947    0.0000 C.ar    1  UNL1       -0.0163
     24 C           5.1068    3.3028    0.0000 C.2     1  UNL1       -0.1026
     25 C           3.9502   -2.9607    0.0000 C.ar    1  UNL1        0.1585
     26 C          10.6050    0.1405    0.0000 C.3     1  UNL1        0.0789
     27 C           7.8270    4.6928    0.0000 C.3     1  UNL1        0.0332
     28 C           4.9502   -4.6928    0.0000 C.3     1  UNL1        0.0790
     29 H           4.6995    0.2258    0.0000 H       1  UNL1        0.0314
     30 H           5.8487   -0.8376    0.0000 H       1  UNL1        0.0360
     31 H           7.0692   -0.6749    0.0000 H       1  UNL1        0.0425
     32 H           6.8095    2.4363    0.0000 H       1  UNL1        0.0750
     33 H           6.3856    2.6957    0.0000 H       1  UNL1        0.0317
     34 H           6.9492    2.1320    0.0000 H       1  UNL1        0.0317
     35 H           9.0332    1.2664    0.0000 H       1  UNL1        0.0616
     36 H           4.0154    0.5663    0.0000 H       1  UNL1        0.0233
     37 H           3.7884    1.4133    0.0000 H       1  UNL1        0.0233
     38 H           4.6354    1.6402    0.0000 H       1  UNL1        0.0233
     39 H           4.9272    1.8984    0.0000 H       1  UNL1        0.0567
     40 H           6.0702   -2.0947    0.0000 H       1  UNL1        0.0658
     41 H           3.6402   -0.6917    0.0000 H       1  UNL1        0.0622
     42 H           2.8302   -2.0947    0.0000 H       1  UNL1        0.0655
     43 H           4.5079    3.4632    0.0000 H       1  UNL1        0.0532
     44 H           5.5452    3.7412    0.0000 H       1  UNL1        0.0532
     45 H          10.2064    0.6154    0.0000 H       1  UNL1        0.0660
     46 H          11.0799    0.5390    0.0000 H       1  UNL1        0.0660
     47 H          11.0035   -0.3345    0.0000 H       1  UNL1        0.0660
     48 H           7.2900    5.0028    0.0000 H       1  UNL1        0.0342
     49 H           8.1370    5.2297    0.0000 H       1  UNL1        0.0342
     50 H           8.3639    4.3828    0.0000 H       1  UNL1        0.0342
     51 H           2.8302   -3.8268    0.0000 H       1  UNL1        0.2923
     52 H           5.4872   -5.0028    0.0000 H       1  UNL1        0.0660
     53 H           4.6402   -5.2297    0.0000 H       1  UNL1        0.0660
     54 H           4.4133   -4.3828    0.0000 H       1  UNL1        0.0660
@<TRIPOS>BOND
     1    11     1    1
     2     1    21    1
     3     2    17    1
     4     2    26    1
     5     3    14    2
     6     4    21    2
     7     5    22    1
     8     5    28    1
     9     6    25    1
    10     6    51    1
    11     7     8    1
    12     7    11    1
    13     7    12    1
    14     7    13    1
    15     8     9    1
    16     8    15    1
    17     8    29    1
    18     9    10    1
    19     9    16    1
    20     9    30    1
    21    10    11    1
    22    10    14    1
    23    10    31    1
    24    11    32    1
    25    12    18    1
    26    12    33    1
    27    12    34    1
    28    13    17    2
    29    13    35    1
    30    14    17    1
    31    15    36    1
    32    15    37    1
    33    15    38    1
    34    16    19   ar
    35    16    20   ar
    36    18    24    2
    37    18    39    1
    38    19    22   ar
    39    19    40    1
    40    20    23   ar
    41    20    41    1
    42    21    27    1
    43    22    25   ar
    44    23    25   ar
    45    23    42    1
    46    24    43    1
    47    24    44    1
    48    26    45    1
    49    26    46    1
    50    26    47    1
    51    27    48    1
    52    27    49    1
    53    27    50    1
    54    28    52    1
    55    28    53    1
    56    28    54    1
