@<TRIPOS>MOLECULE
IMPHY004936
 32 33 0 0 0
SMALL
GASTEIGER

@<TRIPOS>ATOM
      1 O           4.5981   -1.8367    0.0000 O.3     1  UNL1       -0.5053
      2 O           8.1282    1.1875    0.0000 O.3     1  UNL1       -0.4950
      3 O           6.3465   -1.8713    0.0000 O.3     1  UNL1       -0.5059
      4 O           2.8660   -1.8367    0.0000 O.2     1  UNL1       -0.2922
      5 C           5.4641   -0.3367    0.0000 C.ar    1  UNL1        0.0658
      6 C           5.4641    0.6633    0.0000 C.ar    1  UNL1       -0.0071
      7 C           3.7320   -0.3367    0.0000 C.ar    1  UNL1        0.0621
      8 C           3.7320    0.6633    0.0000 C.ar    1  UNL1       -0.0359
      9 C           4.5981   -0.8367    0.0000 C.ar    1  UNL1        0.1387
     10 C           4.5981    1.1633    0.0000 C.ar    1  UNL1       -0.0500
     11 C           6.3580   -0.8713    0.0000 C.ar    1  UNL1        0.1315
     12 C           6.3580    1.1980    0.0000 C.ar    1  UNL1       -0.0119
     13 C           7.2641    0.6841    0.0000 C.ar    1  UNL1        0.1242
     14 C           7.2641   -0.3575    0.0000 C.ar    1  UNL1        0.0223
     15 C           2.8660    1.1633    0.0000 C.3     1  UNL1       -0.0389
     16 C           2.8660   -0.8367    0.0000 C.2     1  UNL1        0.1639
     17 C           2.0000   -0.3367    0.0000 C.3     1  UNL1       -0.0013
     18 C           8.1244    2.1875    0.0000 C.3     1  UNL1        0.0788
     19 H           4.5981    1.7833    0.0000 H       1  UNL1        0.0626
     20 H           6.3509    1.8179    0.0000 H       1  UNL1        0.0660
     21 H           7.7998   -0.6696    0.0000 H       1  UNL1        0.0691
     22 H           3.1760    1.7003    0.0000 H       1  UNL1        0.0278
     23 H           2.3291    1.4733    0.0000 H       1  UNL1        0.0278
     24 H           2.5560    0.6264    0.0000 H       1  UNL1        0.0278
     25 H           2.3100    0.2003    0.0000 H       1  UNL1        0.0309
     26 H           1.4631   -0.0267    0.0000 H       1  UNL1        0.0309
     27 H           1.6900   -0.8736    0.0000 H       1  UNL1        0.0309
     28 H           4.0611   -2.1467    0.0000 H       1  UNL1        0.2922
     29 H           6.8798   -2.1875    0.0000 H       1  UNL1        0.2922
     30 H           8.7443    2.1898    0.0000 H       1  UNL1        0.0660
     31 H           8.1220    2.8075    0.0000 H       1  UNL1        0.0660
     32 H           7.5044    2.1851    0.0000 H       1  UNL1        0.0660
@<TRIPOS>BOND
     1     1     9    1
     2     1    28    1
     3     2    13    1
     4     2    18    1
     5     3    11    1
     6     3    29    1
     7     4    16    2
     8     5     6   ar
     9     5     9   ar
    10     5    11   ar
    11     6    10   ar
    12     6    12   ar
    13     7     8   ar
    14     7     9   ar
    15     7    16    1
    16     8    10   ar
    17     8    15    1
    18    10    19    1
    19    11    14   ar
    20    12    13   ar
    21    12    20    1
    22    13    14   ar
    23    14    21    1
    24    15    22    1
    25    15    23    1
    26    15    24    1
    27    16    17    1
    28    17    25    1
    29    17    26    1
    30    17    27    1
    31    18    30    1
    32    18    31    1
    33    18    32    1
