@<TRIPOS>MOLECULE
IMPHY004513
 58 60 0 0 0
SMALL
GASTEIGER

@<TRIPOS>ATOM
      1 O           6.8671    2.0600    0.0000 O.3     1  UNL1       -0.3419
      2 O           5.1350    2.0600    0.0000 O.3     1  UNL1       -0.3395
      3 O           6.8671    0.0600    0.0000 O.3     1  UNL1       -0.4504
      4 O           8.5991    3.0600    0.0000 O.3     1  UNL1       -0.3892
      5 O           5.1350   -0.9400    0.0000 O.3     1  UNL1       -0.3853
      6 O           3.4030    0.0600    0.0000 O.3     1  UNL1       -0.3864
      7 O           2.5369    1.5600    0.0000 O.3     1  UNL1       -0.3924
      8 O           6.0010   -1.4400    0.0000 O.2     1  UNL1       -0.2456
      9 O          11.1972   -4.4400    0.0000 O.3     1  UNL1       -0.5068
     10 C           6.8671    3.0600    0.0000 C.3     1  UNL1        0.0876
     11 C           6.0010    1.5600    0.0000 C.3     1  UNL1        0.1996
     12 C           7.7331    3.5600    0.0000 C.3     1  UNL1        0.0814
     13 C           6.0010    0.5600    0.0000 C.3     1  UNL1        0.1819
     14 C           6.0010    3.5600    0.0000 C.3     1  UNL1       -0.0241
     15 C           5.1350    0.0600    0.0000 C.3     1  UNL1        0.1251
     16 C           4.2690    0.5600    0.0000 C.3     1  UNL1        0.1130
     17 C           7.7331    4.5600    0.0000 C.3     1  UNL1       -0.0244
     18 C           4.2690    1.5600    0.0000 C.3     1  UNL1        0.1131
     19 C           6.0010    4.5600    0.0000 C.3     1  UNL1       -0.0505
     20 C           6.8671    5.0600    0.0000 C.3     1  UNL1       -0.0506
     21 C           3.4030    2.0600    0.0000 C.3     1  UNL1        0.0730
     22 C           6.8671   -0.9400    0.0000 C.2     1  UNL1        0.3324
     23 C           7.7331   -1.4400    0.0000 C.2     1  UNL1        0.0231
     24 C           7.7331   -2.4400    0.0000 C.2     1  UNL1       -0.0478
     25 C           8.5991   -2.9400    0.0000 C.ar    1  UNL1       -0.0246
     26 C           8.5991   -3.9400    0.0000 C.ar    1  UNL1       -0.0511
     27 C           9.4651   -2.4400    0.0000 C.ar    1  UNL1       -0.0511
     28 C           9.4651   -4.4400    0.0000 C.ar    1  UNL1       -0.0196
     29 C          10.3312   -2.9400    0.0000 C.ar    1  UNL1       -0.0196
     30 C          10.3312   -3.9400    0.0000 C.ar    1  UNL1        0.1169
     31 H           7.4040    2.7500    0.0000 H       1  UNL1        0.0623
     32 H           6.0010    2.1800    0.0000 H       1  UNL1        0.0949
     33 H           8.2700    3.8700    0.0000 H       1  UNL1        0.0619
     34 H           6.0010   -0.0600    0.0000 H       1  UNL1        0.0813
     35 H           5.3905    3.6677    0.0000 H       1  UNL1        0.0291
     36 H           5.7890    2.9774    0.0000 H       1  UNL1        0.0291
     37 H           4.5981   -0.2500    0.0000 H       1  UNL1        0.0659
     38 H           3.7320    0.8700    0.0000 H       1  UNL1        0.0647
     39 H           8.3437    4.4523    0.0000 H       1  UNL1        0.0291
     40 H           7.9451    5.1426    0.0000 H       1  UNL1        0.0291
     41 H           4.2690    2.1800    0.0000 H       1  UNL1        0.0647
     42 H           5.7890    5.1426    0.0000 H       1  UNL1        0.0266
     43 H           5.3905    4.4523    0.0000 H       1  UNL1        0.0266
     44 H           7.2656    5.5350    0.0000 H       1  UNL1        0.0266
     45 H           6.4685    5.5350    0.0000 H       1  UNL1        0.0266
     46 H           3.8015    2.5349    0.0000 H       1  UNL1        0.0584
     47 H           3.0044    2.5349    0.0000 H       1  UNL1        0.0584
     48 H           9.1360    3.3700    0.0000 H       1  UNL1        0.2099
     49 H           4.5981   -1.2500    0.0000 H       1  UNL1        0.2101
     50 H           3.4030   -0.5600    0.0000 H       1  UNL1        0.2100
     51 H           2.0000    1.8700    0.0000 H       1  UNL1        0.2095
     52 H           8.2700   -1.1300    0.0000 H       1  UNL1        0.0689
     53 H           7.1962   -2.7500    0.0000 H       1  UNL1        0.0626
     54 H           8.0622   -4.2500    0.0000 H       1  UNL1        0.0625
     55 H           9.4651   -1.8200    0.0000 H       1  UNL1        0.0625
     56 H           9.4651   -5.0600    0.0000 H       1  UNL1        0.0654
     57 H          10.8681   -2.6300    0.0000 H       1  UNL1        0.0654
     58 H          11.1972   -5.0600    0.0000 H       1  UNL1        0.2921
@<TRIPOS>BOND
     1    10     1    1
     2    11     1    1
     3     2    11    1
     4     2    18    1
     5    13     3    1
     6     3    22    1
     7    12     4    1
     8     4    48    1
     9    15     5    1
    10     5    49    1
    11    16     6    1
    12     6    50    1
    13     7    21    1
    14     7    51    1
    15     8    22    2
    16     9    30    1
    17     9    58    1
    18    10    12    1
    19    10    14    1
    20    10    31    1
    21    11    13    1
    22    11    32    1
    23    12    17    1
    24    12    33    1
    25    13    15    1
    26    13    34    1
    27    14    19    1
    28    14    35    1
    29    14    36    1
    30    15    16    1
    31    15    37    1
    32    16    18    1
    33    16    38    1
    34    17    20    1
    35    17    39    1
    36    17    40    1
    37    18    21    1
    38    18    41    1
    39    19    20    1
    40    19    42    1
    41    19    43    1
    42    20    44    1
    43    20    45    1
    44    21    46    1
    45    21    47    1
    46    22    23    1
    47    23    24    2
    48    23    52    1
    49    24    25    1
    50    24    53    1
    51    25    26   ar
    52    25    27   ar
    53    26    28   ar
    54    26    54    1
    55    27    29   ar
    56    27    55    1
    57    28    30   ar
    58    28    56    1
    59    29    30   ar
    60    29    57    1
