@<TRIPOS>MOLECULE
IMPHY017716
 25 25 0 0 0
SMALL
GASTEIGER

@<TRIPOS>ATOM
      1 O           2.8660   -2.7500    0.0000 O.3     1  UNL1       -0.4951
      2 O           2.8660    3.2500    0.0000 O.2     1  UNL1       -0.2930
      3 C           2.8660    0.2500    0.0000 C.ar    1  UNL1       -0.0247
      4 C           3.7320   -0.2500    0.0000 C.ar    1  UNL1       -0.0511
      5 C           2.0000   -0.2500    0.0000 C.ar    1  UNL1       -0.0511
      6 C           2.8660   -1.7500    0.0000 C.ar    1  UNL1        0.1201
      7 C           3.7320   -1.2500    0.0000 C.ar    1  UNL1       -0.0194
      8 C           2.0000   -1.2500    0.0000 C.ar    1  UNL1       -0.0194
      9 C           2.8660    1.2500    0.0000 C.2     1  UNL1       -0.0513
     10 C           3.7320    1.7500    0.0000 C.2     1  UNL1       -0.0189
     11 C           3.7320    2.7500    0.0000 C.2     1  UNL1        0.1531
     12 C           4.5981    3.2500    0.0000 C.3     1  UNL1       -0.0020
     13 C           2.0000   -3.2500    0.0000 C.3     1  UNL1        0.0788
     14 H           4.2690    0.0600    0.0000 H       1  UNL1        0.0625
     15 H           1.4631    0.0600    0.0000 H       1  UNL1        0.0625
     16 H           4.2690   -1.5600    0.0000 H       1  UNL1        0.0654
     17 H           1.4631   -1.5600    0.0000 H       1  UNL1        0.0654
     18 H           2.3291    1.5600    0.0000 H       1  UNL1        0.0624
     19 H           4.2690    1.4400    0.0000 H       1  UNL1        0.0652
     20 H           4.9081    2.7131    0.0000 H       1  UNL1        0.0309
     21 H           5.1350    3.5600    0.0000 H       1  UNL1        0.0309
     22 H           4.2881    3.7869    0.0000 H       1  UNL1        0.0309
     23 H           1.6900   -2.7131    0.0000 H       1  UNL1        0.0660
     24 H           1.4631   -3.5600    0.0000 H       1  UNL1        0.0660
     25 H           2.3100   -3.7869    0.0000 H       1  UNL1        0.0660
@<TRIPOS>BOND
     1     1     6    1
     2     1    13    1
     3     2    11    2
     4     3     4   ar
     5     3     5   ar
     6     3     9    1
     7     4     7   ar
     8     4    14    1
     9     5     8   ar
    10     5    15    1
    11     6     7   ar
    12     6     8   ar
    13     7    16    1
    14     8    17    1
    15     9    10    2
    16     9    18    1
    17    10    11    1
    18    10    19    1
    19    11    12    1
    20    12    20    1
    21    12    21    1
    22    12    22    1
    23    13    23    1
    24    13    24    1
    25    13    25    1
