@<TRIPOS>MOLECULE
IMPHY001581
 22 21 0 0 0
SMALL
GASTEIGER

@<TRIPOS>ATOM
      1 S           8.0622    0.0000    0.0000 S.3     1  UNL1       -0.1641
      2 N           2.0000    0.5000    0.0000 N.1     1  UNL1       -0.1966
      3 C           5.4641   -0.5000    0.0000 C.3     1  UNL1       -0.0514
      4 C           6.3301    0.0000    0.0000 C.3     1  UNL1       -0.0440
      5 C           4.5981    0.0000    0.0000 C.3     1  UNL1       -0.0402
      6 C           7.1962   -0.5000    0.0000 C.3     1  UNL1       -0.0066
      7 C           3.7320   -0.5000    0.0000 C.3     1  UNL1        0.0348
      8 C           2.8660    0.0000    0.0000 C.1     1  UNL1        0.0625
      9 C           8.9282   -0.5000    0.0000 C.3     1  UNL1       -0.0181
     10 H           5.0656   -0.9749    0.0000 H       1  UNL1        0.0266
     11 H           5.8626   -0.9749    0.0000 H       1  UNL1        0.0266
     12 H           6.7287    0.4749    0.0000 H       1  UNL1        0.0273
     13 H           5.9316    0.4749    0.0000 H       1  UNL1        0.0273
     14 H           4.9966    0.4749    0.0000 H       1  UNL1        0.0275
     15 H           4.1996    0.4749    0.0000 H       1  UNL1        0.0275
     16 H           6.7976   -0.9749    0.0000 H       1  UNL1        0.0376
     17 H           7.5947   -0.9749    0.0000 H       1  UNL1        0.0376
     18 H           3.3335   -0.9749    0.0000 H       1  UNL1        0.0418
     19 H           4.1306   -0.9749    0.0000 H       1  UNL1        0.0418
     20 H           8.6182   -1.0369    0.0000 H       1  UNL1        0.0340
     21 H           9.4651   -0.8100    0.0000 H       1  UNL1        0.0340
     22 H           9.2382    0.0369    0.0000 H       1  UNL1        0.0340
@<TRIPOS>BOND
     1     1     6    1
     2     1     9    1
     3     2     8    3
     4     3     4    1
     5     3     5    1
     6     3    10    1
     7     3    11    1
     8     4     6    1
     9     4    12    1
    10     4    13    1
    11     5     7    1
    12     5    14    1
    13     5    15    1
    14     6    16    1
    15     6    17    1
    16     7     8    1
    17     7    18    1
    18     7    19    1
    19     9    20    1
    20     9    21    1
    21     9    22    1
