@<TRIPOS>MOLECULE
IMPHY000978
 39 41 0 0 0
SMALL
GASTEIGER

@<TRIPOS>ATOM
      1 O           7.8805   -0.6466    0.0000 O.3     1  UNL1       -0.4575
      2 O           4.3198   -1.8765    0.0000 O.3     1  UNL1       -0.3911
      3 O           2.5381    1.1822    0.0000 O.3     1  UNL1       -0.3874
      4 O           9.4641    0.1581    0.0000 O.2     1  UNL1       -0.2453
      5 C           5.2022   -0.3419    0.0000 C.3     1  UNL1        0.0039
      6 C           5.2022    0.6581    0.0000 C.3     1  UNL1       -0.0092
      7 C           6.0682   -0.8419    0.0000 C.3     1  UNL1       -0.0068
      8 C           6.0682    1.1581    0.0000 C.3     1  UNL1       -0.0354
      9 C           6.9343    0.6581    0.0000 C.3     1  UNL1        0.0280
     10 C           6.9343   -0.3419    0.0000 C.3     1  UNL1        0.1110
     11 C           4.3083   -0.8766    0.0000 C.3     1  UNL1        0.0639
     12 C           4.3083    1.1928    0.0000 C.2     1  UNL1       -0.0448
     13 C           3.4022   -0.3627    0.0000 C.3     1  UNL1        0.0037
     14 C           5.2022   -1.3419    0.0000 C.3     1  UNL1       -0.0565
     15 C           3.4022    0.6789    0.0000 C.3     1  UNL1        0.0786
     16 C           7.8805    0.9628    0.0000 C.2     1  UNL1        0.0361
     17 C           8.4641    0.1581    0.0000 C.2     1  UNL1        0.3353
     18 C           4.3198    2.1927    0.0000 C.2     1  UNL1       -0.0967
     19 C           8.1912    1.9134    0.0000 C.2     1  UNL1       -0.0883
     20 H           5.2088    1.5081    0.0000 H       1  UNL1        0.0353
     21 H           5.6697   -1.3168    0.0000 H       1  UNL1        0.0307
     22 H           6.4668   -1.3168    0.0000 H       1  UNL1        0.0307
     23 H           6.4668    1.6330    0.0000 H       1  UNL1        0.0278
     24 H           5.6697    1.6330    0.0000 H       1  UNL1        0.0278
     25 H           7.0242    1.5033    0.0000 H       1  UNL1        0.0387
     26 H           7.0242   -1.1871    0.0000 H       1  UNL1        0.0740
     27 H           3.7744   -1.1917    0.0000 H       1  UNL1        0.0600
     28 H           2.7914   -0.2566    0.0000 H       1  UNL1        0.0318
     29 H           3.1932   -0.9464    0.0000 H       1  UNL1        0.0318
     30 H           4.5822   -1.3419    0.0000 H       1  UNL1        0.0236
     31 H           5.2022   -1.9619    0.0000 H       1  UNL1        0.0236
     32 H           5.8222   -1.3419    0.0000 H       1  UNL1        0.0236
     33 H           2.8647    0.3699    0.0000 H       1  UNL1        0.0641
     34 H           3.7865   -2.1927    0.0000 H       1  UNL1        0.2098
     35 H           4.8603    2.4965    0.0000 H       1  UNL1        0.0535
     36 H           3.7865    2.5089    0.0000 H       1  UNL1        0.0535
     37 H           2.0000    0.8743    0.0000 H       1  UNL1        0.2102
     38 H           8.7978    2.0412    0.0000 H       1  UNL1        0.0540
     39 H           7.7771    2.3748    0.0000 H       1  UNL1        0.0540
@<TRIPOS>BOND
     1     1    10    1
     2     1    17    1
     3    11     2    1
     4     2    34    1
     5    15     3    1
     6     3    37    1
     7     4    17    2
     8     5     6    1
     9     5     7    1
    10     5    11    1
    11     5    14    1
    12     6     8    1
    13     6    12    1
    14     6    20    1
    15     7    10    1
    16     7    21    1
    17     7    22    1
    18     8     9    1
    19     8    23    1
    20     8    24    1
    21     9    10    1
    22     9    16    1
    23     9    25    1
    24    10    26    1
    25    11    13    1
    26    11    27    1
    27    12    15    1
    28    12    18    2
    29    13    15    1
    30    13    28    1
    31    13    29    1
    32    14    30    1
    33    14    31    1
    34    14    32    1
    35    15    33    1
    36    16    17    1
    37    16    19    2
    38    18    35    1
    39    18    36    1
    40    19    38    1
    41    19    39    1
