@<TRIPOS>MOLECULE
IMPHY001648
 34 36 0 0 0
SMALL
GASTEIGER

@<TRIPOS>ATOM
      1 O           4.6497    1.2741    0.0000 O.3     1  UNL1       -0.4907
      2 O           2.8680    0.2637    0.0000 O.3     1  UNL1       -0.4885
      3 O           2.8680   -1.7846    0.0000 O.3     1  UNL1       -0.5032
      4 O           9.0501    1.7846    0.0000 O.3     1  UNL1       -0.5067
      5 C           5.5320   -0.2605    0.0000 C.ar    1  UNL1        0.0354
      6 C           6.3981    0.2395    0.0000 C.ar    1  UNL1       -0.0063
      7 C           5.5320   -1.2605    0.0000 C.ar    1  UNL1       -0.0101
      8 C           7.2641   -0.2605    0.0000 C.ar    1  UNL1       -0.0137
      9 C           4.6381    0.2742    0.0000 C.ar    1  UNL1        0.1734
     10 C           6.3981   -1.7605    0.0000 C.ar    1  UNL1       -0.0532
     11 C           7.2641   -1.2605    0.0000 C.ar    1  UNL1       -0.0533
     12 C           4.6381   -1.7951    0.0000 C.ar    1  UNL1       -0.0085
     13 C           3.7320   -0.2397    0.0000 C.ar    1  UNL1        0.2039
     14 C           6.3820    1.2810    0.0000 C.ar    1  UNL1       -0.0499
     15 C           3.7320   -1.2813    0.0000 C.ar    1  UNL1        0.1628
     16 C           8.1741    0.2464    0.0000 C.ar    1  UNL1       -0.0124
     17 C           7.2800    1.8088    0.0000 C.ar    1  UNL1       -0.0196
     18 C           8.1821    1.2880    0.0000 C.ar    1  UNL1        0.1175
     19 C           3.7895    1.7841    0.0000 C.3     1  UNL1        0.0790
     20 C           2.0000   -0.2330    0.0000 C.3     1  UNL1        0.0791
     21 H           6.3981   -2.3805    0.0000 H       1  UNL1        0.0624
     22 H           7.8010   -1.5705    0.0000 H       1  UNL1        0.0624
     23 H           4.6453   -2.4151    0.0000 H       1  UNL1        0.0661
     24 H           5.8415    1.5848    0.0000 H       1  UNL1        0.0625
     25 H           8.7074   -0.0698    0.0000 H       1  UNL1        0.0660
     26 H           7.2777    2.4288    0.0000 H       1  UNL1        0.0654
     27 H           4.1057    2.3174    0.0000 H       1  UNL1        0.0660
     28 H           3.2562    2.1003    0.0000 H       1  UNL1        0.0660
     29 H           3.4733    1.2508    0.0000 H       1  UNL1        0.0660
     30 H           2.8703   -2.4046    0.0000 H       1  UNL1        0.2923
     31 H           1.6921    0.3051    0.0000 H       1  UNL1        0.0660
     32 H           1.4619   -0.5409    0.0000 H       1  UNL1        0.0660
     33 H           2.3079   -0.7711    0.0000 H       1  UNL1        0.0660
     34 H           9.0525    2.4046    0.0000 H       1  UNL1        0.2921
@<TRIPOS>BOND
     1     1     9    1
     2     1    19    1
     3     2    13    1
     4     2    20    1
     5     3    15    1
     6     3    30    1
     7     4    18    1
     8     4    34    1
     9     5     6   ar
    10     5     7   ar
    11     5     9   ar
    12     6     8   ar
    13     6    14   ar
    14     7    10   ar
    15     7    12   ar
    16     8    11   ar
    17     8    16   ar
    18     9    13   ar
    19    10    11   ar
    20    10    21    1
    21    11    22    1
    22    12    15   ar
    23    12    23    1
    24    13    15   ar
    25    14    17   ar
    26    14    24    1
    27    16    18   ar
    28    16    25    1
    29    17    18   ar
    30    17    26    1
    31    19    27    1
    32    19    28    1
    33    19    29    1
    34    20    31    1
    35    20    32    1
    36    20    33    1
