@<TRIPOS>MOLECULE
IMPHY001027
 110 112 0 0 0
SMALL
GASTEIGER

@<TRIPOS>ATOM
      1 O          12.2311    2.1319    0.0000 O.3     1  UNL1       -0.3683
      2 O          14.3002    1.4596    0.0000 O.3     1  UNL1       -0.3683
      3 O          10.2631    1.4326    0.0000 O.3     1  UNL1       -0.3892
      4 O          15.4812   -0.2629    0.0000 O.3     1  UNL1       -0.3892
      5 O           6.5474    4.7782    0.0000 O.3     1  UNL1       -0.3918
      6 O          27.9590   -3.8082    0.0000 O.3     1  UNL1       -0.4542
      7 O          26.8375   -5.1931    0.0000 O.2     1  UNL1       -0.2453
      8 C          13.0401    2.7197    0.0000 C.3     1  UNL1        0.0853
      9 C          13.9912    2.4107    0.0000 C.3     1  UNL1        0.0853
     10 C          12.7311    3.6708    0.0000 C.3     1  UNL1       -0.0217
     11 C          14.8002    2.9985    0.0000 C.3     1  UNL1       -0.0217
     12 C          11.4221    2.7197    0.0000 C.3     1  UNL1        0.0850
     13 C          15.3002    1.4596    0.0000 C.3     1  UNL1        0.0850
     14 C          11.7311    3.6708    0.0000 C.3     1  UNL1       -0.0217
     15 C          15.6092    2.4107    0.0000 C.3     1  UNL1       -0.0217
     16 C          10.4710    2.4107    0.0000 C.3     1  UNL1        0.0813
     17 C          15.8880    0.6506    0.0000 C.3     1  UNL1        0.0813
     18 C           9.7279    3.0798    0.0000 C.3     1  UNL1       -0.0244
     19 C          16.8825    0.7552    0.0000 C.3     1  UNL1       -0.0244
     20 C           8.7768    2.7708    0.0000 C.3     1  UNL1       -0.0506
     21 C          17.4703   -0.0539    0.0000 C.3     1  UNL1       -0.0506
     22 C           8.0337    3.4400    0.0000 C.3     1  UNL1       -0.0506
     23 C          18.4648    0.0507    0.0000 C.3     1  UNL1       -0.0530
     24 C           7.0826    3.1309    0.0000 C.3     1  UNL1       -0.0269
     25 C          19.0526   -0.7583    0.0000 C.3     1  UNL1       -0.0531
     26 C           6.3395    3.8001    0.0000 C.3     1  UNL1        0.0553
     27 C          20.0471   -0.6538    0.0000 C.3     1  UNL1       -0.0531
     28 C          20.6349   -1.4628    0.0000 C.3     1  UNL1       -0.0531
     29 C           5.3884    3.4910    0.0000 C.3     1  UNL1       -0.0269
     30 C          21.6294   -1.3583    0.0000 C.3     1  UNL1       -0.0531
     31 C           4.6453    4.1602    0.0000 C.3     1  UNL1       -0.0507
     32 C          22.2172   -2.1673    0.0000 C.3     1  UNL1       -0.0531
     33 C           3.6942    3.8512    0.0000 C.3     1  UNL1       -0.0532
     34 C          23.2117   -2.0628    0.0000 C.3     1  UNL1       -0.0530
     35 C          23.7995   -2.8718    0.0000 C.3     1  UNL1       -0.0528
     36 C           2.9511    4.5203    0.0000 C.3     1  UNL1       -0.0559
     37 C          24.7940   -2.7673    0.0000 C.3     1  UNL1       -0.0488
     38 C          25.3818   -3.5763    0.0000 C.3     1  UNL1       -0.0211
     39 C           2.0000    4.2113    0.0000 C.3     1  UNL1       -0.0653
     40 C          26.3763   -3.4718    0.0000 C.2     1  UNL1        0.0361
     41 C          26.8763   -2.6058    0.0000 C.2     1  UNL1       -0.0343
     42 C          27.8545   -2.8137    0.0000 C.3     1  UNL1        0.1195
     43 C          27.0455   -4.2149    0.0000 C.2     1  UNL1        0.3355
     44 C          28.5976   -2.1445    0.0000 C.3     1  UNL1       -0.0240
     45 H          13.1731    1.8802    0.0000 H       1  UNL1        0.0622
     46 H          13.3901    1.8097    0.0000 H       1  UNL1        0.0622
     47 H          13.3375    3.7997    0.0000 H       1  UNL1        0.0292
     48 H          12.6663    4.2874    0.0000 H       1  UNL1        0.0292
     49 H          15.2150    3.4592    0.0000 H       1  UNL1        0.0292
     50 H          14.3853    3.4592    0.0000 H       1  UNL1        0.0292
     51 H          11.2891    1.8802    0.0000 H       1  UNL1        0.0622
     52 H          14.9143    0.7023    0.0000 H       1  UNL1        0.0622
     53 H          11.7959    4.2874    0.0000 H       1  UNL1        0.0292
     54 H          11.1246    3.7997    0.0000 H       1  UNL1        0.0292
     55 H          16.1756    2.1585    0.0000 H       1  UNL1        0.0292
     56 H          15.9192    2.9476    0.0000 H       1  UNL1        0.0292
     57 H           9.8814    2.2191    0.0000 H       1  UNL1        0.0619
     58 H          16.2524    0.1490    0.0000 H       1  UNL1        0.0619
     59 H          10.2164    3.4615    0.0000 H       1  UNL1        0.0291
     60 H           9.4368    3.6273    0.0000 H       1  UNL1        0.0291
     61 H          17.4397    1.0270    0.0000 H       1  UNL1        0.0291
     62 H          16.7116    1.3511    0.0000 H       1  UNL1        0.0291
     63 H           8.2882    2.3891    0.0000 H       1  UNL1        0.0266
     64 H           9.0679    2.2234    0.0000 H       1  UNL1        0.0266
     65 H          16.9130   -0.3257    0.0000 H       1  UNL1        0.0266
     66 H          17.6412   -0.6498    0.0000 H       1  UNL1        0.0266
     67 H           9.6734    1.2410    0.0000 H       1  UNL1        0.2099
     68 H          15.8456   -0.7645    0.0000 H       1  UNL1        0.2099
     69 H           8.5222    3.8217    0.0000 H       1  UNL1        0.0266
     70 H           7.7426    3.9874    0.0000 H       1  UNL1        0.0266
     71 H          19.0220    0.3225    0.0000 H       1  UNL1        0.0265
     72 H          18.2939    0.6466    0.0000 H       1  UNL1        0.0265
     73 H           6.5940    2.7492    0.0000 H       1  UNL1        0.0290
     74 H           7.3737    2.5835    0.0000 H       1  UNL1        0.0290
     75 H          18.4953   -1.0301    0.0000 H       1  UNL1        0.0265
     76 H          19.2235   -1.3543    0.0000 H       1  UNL1        0.0265
     77 H           6.9291    3.9916    0.0000 H       1  UNL1        0.0593
     78 H          20.6043   -0.3820    0.0000 H       1  UNL1        0.0265
     79 H          19.8762   -0.0578    0.0000 H       1  UNL1        0.0265
     80 H          20.0776   -1.7346    0.0000 H       1  UNL1        0.0265
     81 H          20.8058   -2.0588    0.0000 H       1  UNL1        0.0265
     82 H           4.8998    3.1093    0.0000 H       1  UNL1        0.0290
     83 H           5.6795    2.9436    0.0000 H       1  UNL1        0.0290
     84 H          22.1867   -1.0865    0.0000 H       1  UNL1        0.0265
     85 H          21.4585   -0.7623    0.0000 H       1  UNL1        0.0265
     86 H           5.1338    4.5419    0.0000 H       1  UNL1        0.0266
     87 H           4.3542    4.7076    0.0000 H       1  UNL1        0.0266
     88 H          21.6599   -2.4391    0.0000 H       1  UNL1        0.0265
     89 H          22.3881   -2.7633    0.0000 H       1  UNL1        0.0265
     90 H           6.0866    5.1931    0.0000 H       1  UNL1        0.2098
     91 H           3.2056    3.4694    0.0000 H       1  UNL1        0.0265
     92 H           3.9853    3.3037    0.0000 H       1  UNL1        0.0265
     93 H          23.7690   -1.7910    0.0000 H       1  UNL1        0.0265
     94 H          23.0408   -1.4668    0.0000 H       1  UNL1        0.0265
     95 H          23.2422   -3.1436    0.0000 H       1  UNL1        0.0265
     96 H          23.9704   -3.4678    0.0000 H       1  UNL1        0.0265
     97 H           3.4396    4.9020    0.0000 H       1  UNL1        0.0263
     98 H           2.6600    5.0677    0.0000 H       1  UNL1        0.0263
     99 H          25.3513   -2.4955    0.0000 H       1  UNL1        0.0268
    100 H          24.6231   -2.1713    0.0000 H       1  UNL1        0.0268
    101 H          24.8245   -3.8481    0.0000 H       1  UNL1        0.0315
    102 H          25.5527   -4.1723    0.0000 H       1  UNL1        0.0315
    103 H           1.8084    4.8009    0.0000 H       1  UNL1        0.0230
    104 H           1.4103    4.0197    0.0000 H       1  UNL1        0.0230
    105 H           2.1916    3.6216    0.0000 H       1  UNL1        0.0230
    106 H          26.6241   -2.0394    0.0000 H       1  UNL1        0.0613
    107 H          28.4333   -3.0358    0.0000 H       1  UNL1        0.0777
    108 H          29.0125   -2.6053    0.0000 H       1  UNL1        0.0268
    109 H          29.0584   -1.7297    0.0000 H       1  UNL1        0.0268
    110 H          28.1828   -1.6838    0.0000 H       1  UNL1        0.0268
@<TRIPOS>BOND
     1     1     8    1
     2     1    12    1
     3     2     9    1
     4     2    13    1
     5    16     3    1
     6     3    67    1
     7    17     4    1
     8     4    68    1
     9    26     5    1
    10     5    90    1
    11     6    42    1
    12     6    43    1
    13     7    43    2
    14     8     9    1
    15     8    10    1
    16     8    45    1
    17     9    11    1
    18     9    46    1
    19    10    14    1
    20    10    47    1
    21    10    48    1
    22    11    15    1
    23    11    49    1
    24    11    50    1
    25    12    14    1
    26    12    16    1
    27    12    51    1
    28    13    15    1
    29    13    17    1
    30    13    52    1
    31    14    53    1
    32    14    54    1
    33    15    55    1
    34    15    56    1
    35    16    18    1
    36    16    57    1
    37    17    19    1
    38    17    58    1
    39    18    20    1
    40    18    59    1
    41    18    60    1
    42    19    21    1
    43    19    61    1
    44    19    62    1
    45    20    22    1
    46    20    63    1
    47    20    64    1
    48    21    23    1
    49    21    65    1
    50    21    66    1
    51    22    24    1
    52    22    69    1
    53    22    70    1
    54    23    25    1
    55    23    71    1
    56    23    72    1
    57    24    26    1
    58    24    73    1
    59    24    74    1
    60    25    27    1
    61    25    75    1
    62    25    76    1
    63    26    29    1
    64    26    77    1
    65    27    28    1
    66    27    78    1
    67    27    79    1
    68    28    30    1
    69    28    80    1
    70    28    81    1
    71    29    31    1
    72    29    82    1
    73    29    83    1
    74    30    32    1
    75    30    84    1
    76    30    85    1
    77    31    33    1
    78    31    86    1
    79    31    87    1
    80    32    34    1
    81    32    88    1
    82    32    89    1
    83    33    36    1
    84    33    91    1
    85    33    92    1
    86    34    35    1
    87    34    93    1
    88    34    94    1
    89    35    37    1
    90    35    95    1
    91    35    96    1
    92    36    39    1
    93    36    97    1
    94    36    98    1
    95    37    38    1
    96    37    99    1
    97    37   100    1
    98    38    40    1
    99    38   101    1
   100    38   102    1
   101    39   103    1
   102    39   104    1
   103    39   105    1
   104    40    41    2
   105    40    43    1
   106    41    42    1
   107    41   106    1
   108    42    44    1
   109    42   107    1
   110    44   108    1
   111    44   109    1
   112    44   110    1
