@<TRIPOS>MOLECULE
IMPHY014915
 146 145 0 0 0
SMALL
GASTEIGER

@<TRIPOS>ATOM
      1 O           2.5369   10.9400    0.0000 O.3     1  UNL1       -0.3910
      2 C          15.5273    3.4400    0.0000 C.3     1  UNL1       -0.0286
      3 C          18.1254    1.9400    0.0000 C.3     1  UNL1       -0.0286
      4 C          12.9292    4.9400    0.0000 C.3     1  UNL1       -0.0286
      5 C          20.7235    0.4400    0.0000 C.3     1  UNL1       -0.0286
      6 C          16.3933    2.9400    0.0000 C.3     1  UNL1       -0.0308
      7 C          18.9914    1.4400    0.0000 C.3     1  UNL1       -0.0308
      8 C          13.7953    4.4400    0.0000 C.3     1  UNL1       -0.0308
      9 C          21.5895   -0.0600    0.0000 C.3     1  UNL1       -0.0308
     10 C          17.2594    1.4400    0.0000 C.2     1  UNL1       -0.0762
     11 C          15.5273    4.4400    0.0000 C.2     1  UNL1       -0.0762
     12 C          22.4555   -2.5600    0.0000 C.3     1  UNL1       -0.0286
     13 C          10.3312    6.4400    0.0000 C.3     1  UNL1       -0.0286
     14 C          20.7235    1.4400    0.0000 C.2     1  UNL1       -0.0762
     15 C          11.1972    5.9400    0.0000 C.3     1  UNL1       -0.0308
     16 C          12.0632    4.4400    0.0000 C.2     1  UNL1       -0.0762
     17 C          23.3215   -3.0600    0.0000 C.3     1  UNL1       -0.0308
     18 C          22.4555   -1.5600    0.0000 C.2     1  UNL1       -0.0762
     19 C          16.3933    1.9400    0.0000 C.2     1  UNL1       -0.0847
     20 C          14.6613    4.9400    0.0000 C.2     1  UNL1       -0.0847
     21 C          19.8574    1.9400    0.0000 C.2     1  UNL1       -0.0847
     22 C          10.3312    7.4400    0.0000 C.2     1  UNL1       -0.0762
     23 C          21.5895   -1.0600    0.0000 C.2     1  UNL1       -0.0847
     24 C          11.1972    4.9400    0.0000 C.2     1  UNL1       -0.0847
     25 C          24.1876   -5.5600    0.0000 C.3     1  UNL1       -0.0286
     26 C           8.5991    7.4400    0.0000 C.3     1  UNL1       -0.0308
     27 C          24.1876   -4.5600    0.0000 C.2     1  UNL1       -0.0762
     28 C           7.7331    7.9400    0.0000 C.3     1  UNL1       -0.0286
     29 C          23.3215   -4.0600    0.0000 C.2     1  UNL1       -0.0847
     30 C          25.0536   -6.0600    0.0000 C.3     1  UNL1       -0.0308
     31 C           9.4651    7.9400    0.0000 C.2     1  UNL1       -0.0847
     32 C           6.8671    7.4400    0.0000 C.2     1  UNL1       -0.0762
     33 C          17.2594    0.4400    0.0000 C.3     1  UNL1       -0.0438
     34 C          16.3933    4.9400    0.0000 C.3     1  UNL1       -0.0438
     35 C          21.5895    1.9400    0.0000 C.3     1  UNL1       -0.0438
     36 C          12.0632    3.4400    0.0000 C.3     1  UNL1       -0.0438
     37 C          23.3215   -1.0600    0.0000 C.3     1  UNL1       -0.0438
     38 C          25.0536   -7.0600    0.0000 C.2     1  UNL1       -0.0847
     39 C          25.9196   -7.5600    0.0000 C.2     1  UNL1       -0.0762
     40 C          11.1972    7.9400    0.0000 C.3     1  UNL1       -0.0438
     41 C          25.9196   -8.5600    0.0000 C.3     1  UNL1       -0.0286
     42 C           6.0010    8.9400    0.0000 C.3     1  UNL1       -0.0308
     43 C           6.0010    7.9400    0.0000 C.2     1  UNL1       -0.0847
     44 C          25.0536   -4.0600    0.0000 C.3     1  UNL1       -0.0438
     45 C           5.1350    9.4400    0.0000 C.3     1  UNL1       -0.0285
     46 C          26.7856   -9.0600    0.0000 C.3     1  UNL1       -0.0308
     47 C           6.8671    6.4400    0.0000 C.3     1  UNL1       -0.0438
     48 C          26.7856   -7.0600    0.0000 C.3     1  UNL1       -0.0438
     49 C           5.1350   10.4400    0.0000 C.2     1  UNL1       -0.0741
     50 C          26.7856  -10.0600    0.0000 C.2     1  UNL1       -0.0850
     51 C           6.0010   10.9400    0.0000 C.3     1  UNL1       -0.0437
     52 C           4.2690   10.9400    0.0000 C.2     1  UNL1       -0.0600
     53 C          27.6517  -10.5600    0.0000 C.2     1  UNL1       -0.0796
     54 C           3.4030   10.4400    0.0000 C.3     1  UNL1        0.0626
     55 C          27.6517  -11.5600    0.0000 C.3     1  UNL1       -0.0440
     56 C          28.5177  -10.0600    0.0000 C.3     1  UNL1       -0.0440
     57 H          14.9167    3.5477    0.0000 H       1  UNL1        0.0313
     58 H          15.3153    2.8574    0.0000 H       1  UNL1        0.0313
     59 H          18.5239    2.4150    0.0000 H       1  UNL1        0.0313
     60 H          17.7269    2.4150    0.0000 H       1  UNL1        0.0313
     61 H          13.3278    5.4150    0.0000 H       1  UNL1        0.0313
     62 H          12.5307    5.4150    0.0000 H       1  UNL1        0.0313
     63 H          20.1129    0.5477    0.0000 H       1  UNL1        0.0313
     64 H          20.5114   -0.1426    0.0000 H       1  UNL1        0.0313
     65 H          17.0039    2.8323    0.0000 H       1  UNL1        0.0310
     66 H          16.6054    3.5226    0.0000 H       1  UNL1        0.0310
     67 H          18.5929    0.9651    0.0000 H       1  UNL1        0.0310
     68 H          19.3899    0.9651    0.0000 H       1  UNL1        0.0310
     69 H          13.3967    3.9650    0.0000 H       1  UNL1        0.0310
     70 H          14.1938    3.9650    0.0000 H       1  UNL1        0.0310
     71 H          22.2001   -0.1677    0.0000 H       1  UNL1        0.0310
     72 H          21.8015    0.5226    0.0000 H       1  UNL1        0.0310
     73 H          21.8449   -2.4523    0.0000 H       1  UNL1        0.0313
     74 H          22.2435   -3.1426    0.0000 H       1  UNL1        0.0313
     75 H           9.7206    6.5477    0.0000 H       1  UNL1        0.0313
     76 H          10.1191    5.8574    0.0000 H       1  UNL1        0.0313
     77 H          11.8078    5.8323    0.0000 H       1  UNL1        0.0310
     78 H          11.4092    6.5226    0.0000 H       1  UNL1        0.0310
     79 H          23.9321   -3.1677    0.0000 H       1  UNL1        0.0310
     80 H          23.5336   -2.4774    0.0000 H       1  UNL1        0.0310
     81 H          15.8564    1.6300    0.0000 H       1  UNL1        0.0572
     82 H          14.6613    5.5600    0.0000 H       1  UNL1        0.0572
     83 H          19.8574    2.5600    0.0000 H       1  UNL1        0.0572
     84 H          21.0526   -1.3700    0.0000 H       1  UNL1        0.0572
     85 H          10.6603    4.6300    0.0000 H       1  UNL1        0.0572
     86 H          23.5770   -5.4523    0.0000 H       1  UNL1        0.0313
     87 H          23.9755   -6.1426    0.0000 H       1  UNL1        0.0313
     88 H           8.2006    6.9650    0.0000 H       1  UNL1        0.0310
     89 H           8.9976    6.9650    0.0000 H       1  UNL1        0.0310
     90 H           8.1316    8.4149    0.0000 H       1  UNL1        0.0313
     91 H           7.3346    8.4149    0.0000 H       1  UNL1        0.0313
     92 H          22.7846   -4.3700    0.0000 H       1  UNL1        0.0572
     93 H          25.6642   -6.1677    0.0000 H       1  UNL1        0.0310
     94 H          25.2656   -5.4774    0.0000 H       1  UNL1        0.0310
     95 H           9.4651    8.5600    0.0000 H       1  UNL1        0.0572
     96 H          16.6394    0.4400    0.0000 H       1  UNL1        0.0274
     97 H          17.2594   -0.1800    0.0000 H       1  UNL1        0.0274
     98 H          17.8794    0.4400    0.0000 H       1  UNL1        0.0274
     99 H          16.7033    4.4031    0.0000 H       1  UNL1        0.0274
    100 H          16.9303    5.2500    0.0000 H       1  UNL1        0.0274
    101 H          16.0833    5.4769    0.0000 H       1  UNL1        0.0274
    102 H          21.8995    1.4031    0.0000 H       1  UNL1        0.0274
    103 H          22.1264    2.2500    0.0000 H       1  UNL1        0.0274
    104 H          21.2795    2.4769    0.0000 H       1  UNL1        0.0274
    105 H          11.4432    3.4400    0.0000 H       1  UNL1        0.0274
    106 H          12.0632    2.8200    0.0000 H       1  UNL1        0.0274
    107 H          12.6832    3.4400    0.0000 H       1  UNL1        0.0274
    108 H          23.6315   -1.5969    0.0000 H       1  UNL1        0.0274
    109 H          23.8585   -0.7500    0.0000 H       1  UNL1        0.0274
    110 H          23.0115   -0.5231    0.0000 H       1  UNL1        0.0274
    111 H          24.5167   -7.3700    0.0000 H       1  UNL1        0.0572
    112 H          11.5072    7.4031    0.0000 H       1  UNL1        0.0274
    113 H          11.7341    8.2500    0.0000 H       1  UNL1        0.0274
    114 H          10.8872    8.4769    0.0000 H       1  UNL1        0.0274
    115 H          25.3090   -8.4523    0.0000 H       1  UNL1        0.0313
    116 H          25.7076   -9.1426    0.0000 H       1  UNL1        0.0313
    117 H           6.6116    8.8323    0.0000 H       1  UNL1        0.0310
    118 H           6.2131    9.5226    0.0000 H       1  UNL1        0.0310
    119 H           5.4641    7.6300    0.0000 H       1  UNL1        0.0572
    120 H          25.3636   -4.5969    0.0000 H       1  UNL1        0.0274
    121 H          25.5905   -3.7500    0.0000 H       1  UNL1        0.0274
    122 H          24.7436   -3.5231    0.0000 H       1  UNL1        0.0274
    123 H           4.5244    9.5477    0.0000 H       1  UNL1        0.0313
    124 H           4.9230    8.8574    0.0000 H       1  UNL1        0.0313
    125 H          27.3962   -9.1677    0.0000 H       1  UNL1        0.0310
    126 H          26.9977   -8.4774    0.0000 H       1  UNL1        0.0310
    127 H           6.2471    6.4400    0.0000 H       1  UNL1        0.0274
    128 H           6.8671    5.8200    0.0000 H       1  UNL1        0.0274
    129 H           7.4871    6.4400    0.0000 H       1  UNL1        0.0274
    130 H          27.0956   -7.5969    0.0000 H       1  UNL1        0.0274
    131 H          27.3226   -6.7500    0.0000 H       1  UNL1        0.0274
    132 H          26.4756   -6.5231    0.0000 H       1  UNL1        0.0274
    133 H          26.2487  -10.3700    0.0000 H       1  UNL1        0.0572
    134 H           6.3110   10.4031    0.0000 H       1  UNL1        0.0274
    135 H           6.5380   11.2500    0.0000 H       1  UNL1        0.0274
    136 H           5.6910   11.4769    0.0000 H       1  UNL1        0.0274
    137 H           4.2690   11.5600    0.0000 H       1  UNL1        0.0594
    138 H           3.0044    9.9650    0.0000 H       1  UNL1        0.0601
    139 H           3.8015    9.9650    0.0000 H       1  UNL1        0.0601
    140 H          27.0317  -11.5600    0.0000 H       1  UNL1        0.0274
    141 H          27.6517  -12.1800    0.0000 H       1  UNL1        0.0274
    142 H          28.2717  -11.5600    0.0000 H       1  UNL1        0.0274
    143 H          28.8277  -10.5969    0.0000 H       1  UNL1        0.0274
    144 H          29.0546   -9.7500    0.0000 H       1  UNL1        0.0274
    145 H          28.2077   -9.5231    0.0000 H       1  UNL1        0.0274
    146 H           2.0000   10.6300    0.0000 H       1  UNL1        0.2098
@<TRIPOS>BOND
     1     1    54    1
     2     1   146    1
     3     2     6    1
     4     2    11    1
     5     2    57    1
     6     2    58    1
     7     3     7    1
     8     3    10    1
     9     3    59    1
    10     3    60    1
    11     4     8    1
    12     4    16    1
    13     4    61    1
    14     4    62    1
    15     5     9    1
    16     5    14    1
    17     5    63    1
    18     5    64    1
    19     6    19    1
    20     6    65    1
    21     6    66    1
    22     7    21    1
    23     7    67    1
    24     7    68    1
    25     8    20    1
    26     8    69    1
    27     8    70    1
    28     9    23    1
    29     9    71    1
    30     9    72    1
    31    10    19    2
    32    10    33    1
    33    11    20    2
    34    11    34    1
    35    12    17    1
    36    12    18    1
    37    12    73    1
    38    12    74    1
    39    13    15    1
    40    13    22    1
    41    13    75    1
    42    13    76    1
    43    14    21    2
    44    14    35    1
    45    15    24    1
    46    15    77    1
    47    15    78    1
    48    16    24    2
    49    16    36    1
    50    17    29    1
    51    17    79    1
    52    17    80    1
    53    18    23    2
    54    18    37    1
    55    19    81    1
    56    20    82    1
    57    21    83    1
    58    22    31    2
    59    22    40    1
    60    23    84    1
    61    24    85    1
    62    25    27    1
    63    25    30    1
    64    25    86    1
    65    25    87    1
    66    26    28    1
    67    26    31    1
    68    26    88    1
    69    26    89    1
    70    27    29    2
    71    27    44    1
    72    28    32    1
    73    28    90    1
    74    28    91    1
    75    29    92    1
    76    30    38    1
    77    30    93    1
    78    30    94    1
    79    31    95    1
    80    32    43    2
    81    32    47    1
    82    33    96    1
    83    33    97    1
    84    33    98    1
    85    34    99    1
    86    34   100    1
    87    34   101    1
    88    35   102    1
    89    35   103    1
    90    35   104    1
    91    36   105    1
    92    36   106    1
    93    36   107    1
    94    37   108    1
    95    37   109    1
    96    37   110    1
    97    38    39    2
    98    38   111    1
    99    39    41    1
   100    39    48    1
   101    40   112    1
   102    40   113    1
   103    40   114    1
   104    41    46    1
   105    41   115    1
   106    41   116    1
   107    42    43    1
   108    42    45    1
   109    42   117    1
   110    42   118    1
   111    43   119    1
   112    44   120    1
   113    44   121    1
   114    44   122    1
   115    45    49    1
   116    45   123    1
   117    45   124    1
   118    46    50    1
   119    46   125    1
   120    46   126    1
   121    47   127    1
   122    47   128    1
   123    47   129    1
   124    48   130    1
   125    48   131    1
   126    48   132    1
   127    49    51    1
   128    49    52    2
   129    50    53    2
   130    50   133    1
   131    51   134    1
   132    51   135    1
   133    51   136    1
   134    52    54    1
   135    52   137    1
   136    53    55    1
   137    53    56    1
   138    54   138    1
   139    54   139    1
   140    55   140    1
   141    55   141    1
   142    55   142    1
   143    56   143    1
   144    56   144    1
   145    56   145    1
