@<TRIPOS>MOLECULE
IMPHY017761
 37 36 0 0 0
SMALL
GASTEIGER

@<TRIPOS>ATOM
      1 O           6.3301   -0.7500    0.0000 O.2     1  UNL1       -0.2974
      2 C           8.0622    0.2500    0.0000 C.3     1  UNL1       -0.0464
      3 C           8.9282    0.7500    0.0000 C.3     1  UNL1       -0.0527
      4 C           7.1962    0.7500    0.0000 C.3     1  UNL1        0.0058
      5 C           9.7942    0.2500    0.0000 C.3     1  UNL1       -0.0533
      6 C           4.5981    0.2500    0.0000 C.3     1  UNL1       -0.0464
      7 C           5.4641    0.7500    0.0000 C.3     1  UNL1        0.0058
      8 C           3.7320    0.7500    0.0000 C.3     1  UNL1       -0.0529
      9 C           6.3301    0.2500    0.0000 C.2     1  UNL1        0.1334
     10 C          10.6603    0.7500    0.0000 C.3     1  UNL1       -0.0559
     11 C           2.8660    0.2500    0.0000 C.3     1  UNL1       -0.0559
     12 C          11.5263    0.2500    0.0000 C.3     1  UNL1       -0.0653
     13 C           2.0000    0.7500    0.0000 C.3     1  UNL1       -0.0653
     14 H           7.6636   -0.2249    0.0000 H       1  UNL1        0.0269
     15 H           8.4607   -0.2249    0.0000 H       1  UNL1        0.0269
     16 H           9.3267    1.2250    0.0000 H       1  UNL1        0.0265
     17 H           8.5297    1.2250    0.0000 H       1  UNL1        0.0265
     18 H           7.5947    1.2250    0.0000 H       1  UNL1        0.0342
     19 H           6.7976    1.2250    0.0000 H       1  UNL1        0.0342
     20 H           9.3957   -0.2249    0.0000 H       1  UNL1        0.0265
     21 H          10.1928   -0.2249    0.0000 H       1  UNL1        0.0265
     22 H           4.1996   -0.2249    0.0000 H       1  UNL1        0.0269
     23 H           4.9966   -0.2249    0.0000 H       1  UNL1        0.0269
     24 H           5.8626    1.2250    0.0000 H       1  UNL1        0.0342
     25 H           5.0656    1.2250    0.0000 H       1  UNL1        0.0342
     26 H           4.1306    1.2250    0.0000 H       1  UNL1        0.0265
     27 H           3.3335    1.2250    0.0000 H       1  UNL1        0.0265
     28 H          11.0588    1.2250    0.0000 H       1  UNL1        0.0263
     29 H          10.2617    1.2250    0.0000 H       1  UNL1        0.0263
     30 H           2.4675   -0.2249    0.0000 H       1  UNL1        0.0263
     31 H           3.2646   -0.2249    0.0000 H       1  UNL1        0.0263
     32 H          11.2163   -0.2869    0.0000 H       1  UNL1        0.0230
     33 H          12.0632   -0.0600    0.0000 H       1  UNL1        0.0230
     34 H          11.8363    0.7869    0.0000 H       1  UNL1        0.0230
     35 H           2.3100    1.2869    0.0000 H       1  UNL1        0.0230
     36 H           1.4631    1.0600    0.0000 H       1  UNL1        0.0230
     37 H           1.6900    0.2131    0.0000 H       1  UNL1        0.0230
@<TRIPOS>BOND
     1     1     9    2
     2     2     3    1
     3     2     4    1
     4     2    14    1
     5     2    15    1
     6     3     5    1
     7     3    16    1
     8     3    17    1
     9     4     9    1
    10     4    18    1
    11     4    19    1
    12     5    10    1
    13     5    20    1
    14     5    21    1
    15     6     7    1
    16     6     8    1
    17     6    22    1
    18     6    23    1
    19     7     9    1
    20     7    24    1
    21     7    25    1
    22     8    11    1
    23     8    26    1
    24     8    27    1
    25    10    12    1
    26    10    28    1
    27    10    29    1
    28    11    13    1
    29    11    30    1
    30    11    31    1
    31    12    32    1
    32    12    33    1
    33    12    34    1
    34    13    35    1
    35    13    36    1
    36    13    37    1
