@<TRIPOS>MOLECULE
IMPHY017792
 29 30 0 0 0
SMALL
GASTEIGER

@<TRIPOS>ATOM
      1 O           2.0000    0.6900    0.0000 O.3     1  UNL1       -0.3915
      2 C           4.5981   -0.8100    0.0000 C.3     1  UNL1       -0.0319
      3 C           5.4646   -0.3100    0.0000 C.3     1  UNL1       -0.0286
      4 C           4.5981    0.1900    0.0000 C.3     1  UNL1       -0.0299
      5 C           3.7320   -1.3100    0.0000 C.3     1  UNL1       -0.0445
      6 C           3.7320    0.6900    0.0000 C.3     1  UNL1       -0.0230
      7 C           2.8660   -0.8100    0.0000 C.3     1  UNL1       -0.0175
      8 C           2.8660    0.1900    0.0000 C.3     1  UNL1        0.0581
      9 C           5.9646   -1.1760    0.0000 C.3     1  UNL1       -0.0593
     10 C           5.9646    0.5560    0.0000 C.3     1  UNL1       -0.0593
     11 C           2.0000   -1.3100    0.0000 C.3     1  UNL1       -0.0601
     12 H           4.9080   -1.3470    0.0000 H       1  UNL1        0.0309
     13 H           4.9080    0.7270    0.0000 H       1  UNL1        0.0310
     14 H           3.3335   -1.7850    0.0000 H       1  UNL1        0.0272
     15 H           4.1306   -1.7850    0.0000 H       1  UNL1        0.0272
     16 H           4.1306    1.1650    0.0000 H       1  UNL1        0.0293
     17 H           3.3335    1.1650    0.0000 H       1  UNL1        0.0293
     18 H           2.8660   -1.4300    0.0000 H       1  UNL1        0.0323
     19 H           2.8660    0.8100    0.0000 H       1  UNL1        0.0596
     20 H           5.4277   -1.4860    0.0000 H       1  UNL1        0.0235
     21 H           6.2746   -1.7130    0.0000 H       1  UNL1        0.0235
     22 H           6.5016   -0.8660    0.0000 H       1  UNL1        0.0235
     23 H           6.5016    0.2460    0.0000 H       1  UNL1        0.0235
     24 H           6.2746    1.0930    0.0000 H       1  UNL1        0.0235
     25 H           5.4277    0.8660    0.0000 H       1  UNL1        0.0235
     26 H           1.6900   -0.7731    0.0000 H       1  UNL1        0.0233
     27 H           1.4631   -1.6200    0.0000 H       1  UNL1        0.0233
     28 H           2.3100   -1.8469    0.0000 H       1  UNL1        0.0233
     29 H           2.0000    1.3100    0.0000 H       1  UNL1        0.2098
@<TRIPOS>BOND
     1     1     8    1
     2     1    29    1
     3     2     3    1
     4     2     4    1
     5     2     5    1
     6     2    12    1
     7     3     4    1
     8     3     9    1
     9     3    10    1
    10     4     6    1
    11     4    13    1
    12     5     7    1
    13     5    14    1
    14     5    15    1
    15     6     8    1
    16     6    16    1
    17     6    17    1
    18     7     8    1
    19     7    11    1
    20     7    18    1
    21     8    19    1
    22     9    20    1
    23     9    21    1
    24     9    22    1
    25    10    23    1
    26    10    24    1
    27    10    25    1
    28    11    26    1
    29    11    27    1
    30    11    28    1
