@<TRIPOS>MOLECULE
IMPHY000072
 37 38 0 0 0
SMALL
GASTEIGER

@<TRIPOS>ATOM
      1 C           4.0000   -0.1751    0.0000 C.3     1  UNL1        0.0128
      2 C           3.5000   -1.0412    0.0000 C.3     1  UNL1       -0.0308
      3 C           4.5878   -0.9841    0.0000 C.3     1  UNL1       -0.0359
      4 C           3.5000    0.6909    0.0000 C.2     1  UNL1       -0.0664
      5 C           2.5000   -1.0412    0.0000 C.3     1  UNL1       -0.0459
      6 C           4.5878    0.6339    0.0000 C.2     1  UNL1       -0.0702
      7 C           5.5388   -0.6751    0.0000 C.3     1  UNL1       -0.0266
      8 C           5.5388    0.3249    0.0000 C.2     1  UNL1       -0.0480
      9 C           2.0000   -0.1751    0.0000 C.3     1  UNL1       -0.0342
     10 C           4.0000   -1.9072    0.0000 C.3     1  UNL1       -0.0613
     11 C           2.5000    0.6909    0.0000 C.2     1  UNL1       -0.0842
     12 C           4.0000    1.5569    0.0000 C.3     1  UNL1       -0.0430
     13 C           6.3479    0.9127    0.0000 C.2     1  UNL1       -0.0546
     14 C           7.2614    0.5059    0.0000 C.3     1  UNL1       -0.0400
     15 C           6.2433    1.9072    0.0000 C.2     1  UNL1       -0.0955
     16 H           4.1200   -1.0412    0.0000 H       1  UNL1        0.0310
     17 H           4.0508   -1.2942    0.0000 H       1  UNL1        0.0280
     18 H           4.8400   -1.5505    0.0000 H       1  UNL1        0.0280
     19 H           1.9174   -1.2532    0.0000 H       1  UNL1        0.0271
     20 H           2.6077   -1.6517    0.0000 H       1  UNL1        0.0271
     21 H           4.3962    1.2235    0.0000 H       1  UNL1        0.0584
     22 H           5.6678   -1.2816    0.0000 H       1  UNL1        0.0314
     23 H           6.1554   -0.6103    0.0000 H       1  UNL1        0.0314
     24 H           1.5250    0.2234    0.0000 H       1  UNL1        0.0307
     25 H           1.5250   -0.5737    0.0000 H       1  UNL1        0.0307
     26 H           3.4631   -2.2172    0.0000 H       1  UNL1        0.0233
     27 H           4.3100   -2.4441    0.0000 H       1  UNL1        0.0233
     28 H           4.5369   -1.5972    0.0000 H       1  UNL1        0.0233
     29 H           2.1900    1.2278    0.0000 H       1  UNL1        0.0572
     30 H           4.5369    1.2469    0.0000 H       1  UNL1        0.0275
     31 H           4.3100    2.0939    0.0000 H       1  UNL1        0.0275
     32 H           3.4631    1.8669    0.0000 H       1  UNL1        0.0275
     33 H           7.0092   -0.0605    0.0000 H       1  UNL1        0.0277
     34 H           7.8278    0.2537    0.0000 H       1  UNL1        0.0277
     35 H           7.5136    1.0723    0.0000 H       1  UNL1        0.0277
     36 H           6.7449    2.2716    0.0000 H       1  UNL1        0.0537
     37 H           5.6769    2.1594    0.0000 H       1  UNL1        0.0537
@<TRIPOS>BOND
     1     1     2    1
     2     1     3    1
     3     1     4    1
     4     1     6    1
     5     2     5    1
     6     2    10    1
     7     2    16    1
     8     3     7    1
     9     3    17    1
    10     3    18    1
    11     4    11    2
    12     4    12    1
    13     5     9    1
    14     5    19    1
    15     5    20    1
    16     6     8    2
    17     6    21    1
    18     7     8    1
    19     7    22    1
    20     7    23    1
    21     8    13    1
    22     9    11    1
    23     9    24    1
    24     9    25    1
    25    10    26    1
    26    10    27    1
    27    10    28    1
    28    11    29    1
    29    12    30    1
    30    12    31    1
    31    12    32    1
    32    13    14    1
    33    13    15    2
    34    14    33    1
    35    14    34    1
    36    14    35    1
    37    15    36    1
    38    15    37    1
