@<TRIPOS>MOLECULE
IMPHY015469
 37 39 0 0 0
SMALL
GASTEIGER

@<TRIPOS>ATOM
      1 O           3.8870   -2.2818    0.0000 O.2     1  UNL1       -0.2974
      2 C           4.0174   -0.2013    0.0000 C.3     1  UNL1       -0.0141
      3 C           4.3594    0.7384    0.0000 C.3     1  UNL1       -0.0229
      4 C           2.6447    0.3907    0.0000 C.3     1  UNL1       -0.0342
      5 C           2.3859    1.3566    0.0000 C.3     1  UNL1       -0.0348
      6 C           3.1225    2.3392    0.0000 C.3     1  UNL1       -0.0463
      7 C           4.8023   -0.8113    0.0000 C.3     1  UNL1        0.0234
      8 C           5.3528    0.7011    0.0000 C.3     1  UNL1       -0.0462
      9 C           1.2458   -0.1181    0.0000 C.3     1  UNL1       -0.0494
     10 C           0.9869    0.8478    0.0000 C.3     1  UNL1       -0.0494
     11 C           5.6260   -0.2547    0.0000 C.3     1  UNL1       -0.0425
     12 C           3.6754   -1.1410    0.0000 C.3     1  UNL1       -0.0582
     13 C           4.7014    1.6780    0.0000 C.3     1  UNL1       -0.0588
     14 C           4.7692   -1.8108    0.0000 C.2     1  UNL1        0.1339
     15 C           5.6181   -2.3392    0.0000 C.3     1  UNL1       -0.0058
     16 H           2.8647   -0.4304    0.0000 H       1  UNL1        0.0306
     17 H           2.1659    2.1776    0.0000 H       1  UNL1        0.0306
     18 H           2.8047    2.8716    0.0000 H       1  UNL1        0.0271
     19 H           3.7356    2.4312    0.0000 H       1  UNL1        0.0271
     20 H           4.2410   -1.0746    0.0000 H       1  UNL1        0.0383
     21 H           5.3108    1.3197    0.0000 H       1  UNL1        0.0271
     22 H           5.9635    0.8079    0.0000 H       1  UNL1        0.0271
     23 H           1.4407   -0.7067    0.0000 H       1  UNL1        0.0268
     24 H           0.6518   -0.2959    0.0000 H       1  UNL1        0.0268
     25 H           0.3930    0.6700    0.0000 H       1  UNL1        0.0268
     26 H           0.7920    1.4364    0.0000 H       1  UNL1        0.0268
     27 H           6.2009   -0.0226    0.0000 H       1  UNL1        0.0272
     28 H           5.9172   -0.8021    0.0000 H       1  UNL1        0.0272
     29 H           4.2580   -1.3531    0.0000 H       1  UNL1        0.0236
     30 H           3.4633   -1.7236    0.0000 H       1  UNL1        0.0236
     31 H           3.0928   -0.9290    0.0000 H       1  UNL1        0.0236
     32 H           4.1188    1.8901    0.0000 H       1  UNL1        0.0235
     33 H           4.9135    2.2607    0.0000 H       1  UNL1        0.0235
     34 H           5.2840    1.4660    0.0000 H       1  UNL1        0.0235
     35 H           5.9458   -1.8129    0.0000 H       1  UNL1        0.0306
     36 H           6.1445   -2.6669    0.0000 H       1  UNL1        0.0306
     37 H           5.2905   -2.8656    0.0000 H       1  UNL1        0.0306
@<TRIPOS>BOND
     1     1    14    2
     2     2     3    1
     3     2     4    1
     4     2     7    1
     5     2    12    1
     6     3     5    1
     7     3     8    1
     8     3    13    1
     9     4     6    1
    10     4     9    1
    11     4    16    1
    12     5     6    1
    13     5    10    1
    14     5    17    1
    15     6    18    1
    16     6    19    1
    17     7    11    1
    18     7    14    1
    19     7    20    1
    20     8    11    1
    21     8    21    1
    22     8    22    1
    23     9    10    1
    24     9    23    1
    25     9    24    1
    26    10    25    1
    27    10    26    1
    28    11    27    1
    29    11    28    1
    30    12    29    1
    31    12    30    1
    32    12    31    1
    33    13    32    1
    34    13    33    1
    35    13    34    1
    36    14    15    1
    37    15    35    1
    38    15    36    1
    39    15    37    1
