@<TRIPOS>MOLECULE
IMPHY016664
 34 36 0 0 0
SMALL
GASTEIGER

@<TRIPOS>ATOM
      1 O           6.4783   -1.0720    0.0000 O.2     1  UNL1       -0.4672
      2 C           3.8000   -0.7673    0.0000 C.3     1  UNL1       -0.0002
      3 C           3.8000    0.2327    0.0000 C.3     1  UNL1       -0.0066
      4 C           4.6660   -1.2673    0.0000 C.3     1  UNL1        0.0152
      5 C           4.6660    0.7327    0.0000 C.3     1  UNL1       -0.0169
      6 C           5.5321    0.2327    0.0000 C.ar    1  UNL1       -0.0030
      7 C           5.5321   -0.7673    0.0000 C.ar    1  UNL1        0.1091
      8 C           2.9061    0.7674    0.0000 C.2     1  UNL1       -0.0684
      9 C           3.8000   -1.7673    0.0000 C.3     1  UNL1       -0.0551
     10 C           2.9061   -1.3020    0.0000 C.2     1  UNL1       -0.0771
     11 C           6.4783    0.5374    0.0000 C.ar    1  UNL1       -0.0093
     12 C           2.0000    0.2535    0.0000 C.2     1  UNL1       -0.0628
     13 C           2.0000   -0.7881    0.0000 C.2     1  UNL1       -0.0652
     14 C           2.9176    1.7673    0.0000 C.3     1  UNL1       -0.0432
     15 C           7.0619   -0.2673    0.0000 C.ar    1  UNL1        0.0952
     16 C           6.7889    1.4880    0.0000 C.3     1  UNL1       -0.0365
     17 H           3.8066    1.0827    0.0000 H       1  UNL1        0.0357
     18 H           4.2675   -1.7422    0.0000 H       1  UNL1        0.0352
     19 H           5.0646   -1.7422    0.0000 H       1  UNL1        0.0352
     20 H           5.0646    1.2076    0.0000 H       1  UNL1        0.0320
     21 H           4.2675    1.2076    0.0000 H       1  UNL1        0.0320
     22 H           3.1800   -1.7673    0.0000 H       1  UNL1        0.0238
     23 H           3.8000   -2.3873    0.0000 H       1  UNL1        0.0238
     24 H           4.4200   -1.7673    0.0000 H       1  UNL1        0.0238
     25 H           2.9132   -1.9219    0.0000 H       1  UNL1        0.0578
     26 H           1.4643    0.5656    0.0000 H       1  UNL1        0.0617
     27 H           1.4643   -1.1002    0.0000 H       1  UNL1        0.0615
     28 H           3.5376    1.7601    0.0000 H       1  UNL1        0.0275
     29 H           2.9248    2.3873    0.0000 H       1  UNL1        0.0275
     30 H           2.2977    1.7745    0.0000 H       1  UNL1        0.0275
     31 H           7.6819   -0.2673    0.0000 H       1  UNL1        0.1032
     32 H           7.3783    1.2953    0.0000 H       1  UNL1        0.0279
     33 H           6.9816    2.0773    0.0000 H       1  UNL1        0.0279
     34 H           6.1996    1.6806    0.0000 H       1  UNL1        0.0279
@<TRIPOS>BOND
     1     1     7   ar
     2     1    15   ar
     3     2     3    1
     4     2     4    1
     5     2     9    1
     6     2    10    1
     7     3     5    1
     8     3     8    1
     9     3    17    1
    10     4     7    1
    11     4    18    1
    12     4    19    1
    13     5     6    1
    14     5    20    1
    15     5    21    1
    16     6     7   ar
    17     6    11   ar
    18     8    12    2
    19     8    14    1
    20     9    22    1
    21     9    23    1
    22     9    24    1
    23    10    13    2
    24    10    25    1
    25    11    15   ar
    26    11    16    1
    27    12    13    1
    28    12    26    1
    29    13    27    1
    30    14    28    1
    31    14    29    1
    32    14    30    1
    33    15    31    1
    34    16    32    1
    35    16    33    1
    36    16    34    1
