@<TRIPOS>MOLECULE
IMPHY011525
 52 55 0 0 0
SMALL
GASTEIGER

@<TRIPOS>ATOM
      1 C           4.7931    0.4231    0.0000 C.3     1  UNL1       -0.0289
      2 C           5.6591   -0.0769    0.0000 C.3     1  UNL1       -0.0222
      3 C           3.8831   -0.0838    0.0000 C.3     1  UNL1       -0.0254
      4 C           3.8751   -1.1254    0.0000 C.3     1  UNL1       -0.0302
      5 C           5.6752   -1.1184    0.0000 C.3     1  UNL1       -0.0465
      6 C           4.7931    1.4231    0.0000 C.3     1  UNL1       -0.0427
      7 C           4.7771   -1.6462    0.0000 C.3     1  UNL1       -0.0487
      8 C           2.9396   -1.6751    0.0000 C.3     1  UNL1       -0.0315
      9 C           6.5251    0.4231    0.0000 C.3     1  UNL1       -0.0463
     10 C           5.6591    1.9231    0.0000 C.3     1  UNL1       -0.0198
     11 C           5.2591    0.5231    0.0000 C.3     1  UNL1       -0.0258
     12 C           2.9562    0.4803    0.0000 C.3     1  UNL1       -0.0471
     13 C           6.5251    1.4231    0.0000 C.3     1  UNL1       -0.0460
     14 C           5.2591    1.3231    0.0000 C.2     1  UNL1       -0.0730
     15 C           3.5483    0.8585    0.0000 C.3     1  UNL1       -0.0590
     16 C           2.0000   -1.1326    0.0000 C.3     1  UNL1       -0.0476
     17 C           2.0084   -0.0477    0.0000 C.3     1  UNL1       -0.0521
     18 C           2.4430   -2.5431    0.0000 C.3     1  UNL1       -0.0595
     19 C           3.4430   -2.5392    0.0000 C.3     1  UNL1       -0.0595
     20 C           4.5520    2.0302    0.0000 C.2     1  UNL1       -0.0992
     21 H           4.0570    0.8481    0.0000 H       1  UNL1        0.0312
     22 H           3.8783   -1.9754    0.0000 H       1  UNL1        0.0311
     23 H           5.8932   -1.6988    0.0000 H       1  UNL1        0.0271
     24 H           6.2843   -1.0030    0.0000 H       1  UNL1        0.0271
     25 H           4.5810    2.0057    0.0000 H       1  UNL1        0.0274
     26 H           4.1825    1.3154    0.0000 H       1  UNL1        0.0274
     27 H           4.3798   -2.1222    0.0000 H       1  UNL1        0.0268
     28 H           5.1781   -2.1191    0.0000 H       1  UNL1        0.0268
     29 H           6.7372   -0.1596    0.0000 H       1  UNL1        0.0271
     30 H           7.1357    0.5307    0.0000 H       1  UNL1        0.0271
     31 H           5.6591    2.7731    0.0000 H       1  UNL1        0.0346
     32 H           4.6721    0.7226    0.0000 H       1  UNL1        0.0315
     33 H           5.8525    0.7027    0.0000 H       1  UNL1        0.0315
     34 H           3.3645    0.9469    0.0000 H       1  UNL1        0.0271
     35 H           2.5663    0.9623    0.0000 H       1  UNL1        0.0271
     36 H           7.1357    1.3154    0.0000 H       1  UNL1        0.0271
     37 H           6.7372    2.0057    0.0000 H       1  UNL1        0.0271
     38 H           4.1326    1.0661    0.0000 H       1  UNL1        0.0235
     39 H           3.3408    1.4427    0.0000 H       1  UNL1        0.0235
     40 H           2.9641    0.6510    0.0000 H       1  UNL1        0.0235
     41 H           1.3900   -1.0218    0.0000 H       1  UNL1        0.0271
     42 H           1.7864   -1.7147    0.0000 H       1  UNL1        0.0271
     43 H           1.8038    0.5376    0.0000 H       1  UNL1        0.0266
     44 H           1.3967   -0.1490    0.0000 H       1  UNL1        0.0266
     45 H           2.9072   -2.8513    0.0000 H       1  UNL1        0.0235
     46 H           3.7550   -3.0749    0.0000 H       1  UNL1        0.0235
     47 H           3.9787   -2.2271    0.0000 H       1  UNL1        0.0235
     48 H           1.9048   -2.2351    0.0000 H       1  UNL1        0.0235
     49 H           2.1350   -3.0812    0.0000 H       1  UNL1        0.0235
     50 H           2.9811   -2.8510    0.0000 H       1  UNL1        0.0235
     51 H           4.7125    2.6290    0.0000 H       1  UNL1        0.0534
     52 H           3.9531    1.8697    0.0000 H       1  UNL1        0.0534
@<TRIPOS>BOND
     1     1     2    1
     2     1     3    1
     3     1     6    1
     4     1    21    1
     5     2     5    1
     6     2     9    1
     7     2    11    1
     8     3     4    1
     9     3    12    1
    10     3    15    1
    11     4     7    1
    12     4     8    1
    13     4    22    1
    14     5     7    1
    15     5    23    1
    16     5    24    1
    17     6    10    1
    18     6    25    1
    19     6    26    1
    20     7    27    1
    21     7    28    1
    22     8    16    1
    23     8    18    1
    24     8    19    1
    25     9    13    1
    26     9    29    1
    27     9    30    1
    28    10    13    1
    29    10    14    1
    30    10    31    1
    31    11    14    1
    32    11    32    1
    33    11    33    1
    34    12    17    1
    35    12    34    1
    36    12    35    1
    37    13    36    1
    38    13    37    1
    39    14    20    2
    40    15    38    1
    41    15    39    1
    42    15    40    1
    43    16    17    1
    44    16    41    1
    45    16    42    1
    46    17    43    1
    47    17    44    1
    48    18    48    1
    49    18    49    1
    50    18    50    1
    51    19    45    1
    52    19    46    1
    53    19    47    1
    54    20    51    1
    55    20    52    1
