@<TRIPOS>MOLECULE
IMPHY007815
 41 43 0 0 0
SMALL
GASTEIGER

@<TRIPOS>ATOM
      1 O           4.6497    1.4641    0.0000 O.3     1  UNL1       -0.4907
      2 O           9.0343   -0.0736    0.0000 O.3     1  UNL1       -0.4908
      3 O           2.8680    0.4537    0.0000 O.3     1  UNL1       -0.4885
      4 O           2.8680   -1.5946    0.0000 O.3     1  UNL1       -0.4913
      5 O           9.0501    1.9746    0.0000 O.3     1  UNL1       -0.5033
      6 C           5.5320   -0.0705    0.0000 C.ar    1  UNL1        0.0355
      7 C           6.3981    0.4295    0.0000 C.ar    1  UNL1       -0.0028
      8 C           5.5320   -1.0705    0.0000 C.ar    1  UNL1       -0.0101
      9 C           7.2641   -0.0705    0.0000 C.ar    1  UNL1        0.0281
     10 C           4.6381    0.4642    0.0000 C.ar    1  UNL1        0.1734
     11 C           6.3981   -1.5705    0.0000 C.ar    1  UNL1       -0.0531
     12 C           7.2641   -1.0705    0.0000 C.ar    1  UNL1       -0.0498
     13 C           4.6381   -1.6051    0.0000 C.ar    1  UNL1       -0.0083
     14 C           8.1741    0.4364    0.0000 C.ar    1  UNL1        0.1689
     15 C           3.7320   -0.0497    0.0000 C.ar    1  UNL1        0.2042
     16 C           6.3820    1.4710    0.0000 C.ar    1  UNL1       -0.0496
     17 C           3.7320   -1.0913    0.0000 C.ar    1  UNL1        0.1658
     18 C           8.1821    1.4780    0.0000 C.ar    1  UNL1        0.1591
     19 C           7.2800    1.9988    0.0000 C.ar    1  UNL1       -0.0159
     20 C           3.7895    1.9741    0.0000 C.3     1  UNL1        0.0790
     21 C           2.0000   -0.0430    0.0000 C.3     1  UNL1        0.0791
     22 C           9.9060    0.4163    0.0000 C.3     1  UNL1        0.0790
     23 C           2.8718   -2.5946    0.0000 C.3     1  UNL1        0.0790
     24 H           6.3981   -2.1905    0.0000 H       1  UNL1        0.0624
     25 H           7.8010   -1.3805    0.0000 H       1  UNL1        0.0625
     26 H           4.6453   -2.2251    0.0000 H       1  UNL1        0.0661
     27 H           5.8415    1.7748    0.0000 H       1  UNL1        0.0625
     28 H           7.2777    2.6188    0.0000 H       1  UNL1        0.0655
     29 H           4.1057    2.5074    0.0000 H       1  UNL1        0.0660
     30 H           3.2562    2.2903    0.0000 H       1  UNL1        0.0660
     31 H           3.4733    1.4408    0.0000 H       1  UNL1        0.0660
     32 H           9.0525    2.5946    0.0000 H       1  UNL1        0.2923
     33 H           1.6921    0.4951    0.0000 H       1  UNL1        0.0660
     34 H           1.4619   -0.3509    0.0000 H       1  UNL1        0.0660
     35 H           2.3079   -0.5811    0.0000 H       1  UNL1        0.0660
     36 H          10.2098   -0.1241    0.0000 H       1  UNL1        0.0660
     37 H          10.4465    0.7201    0.0000 H       1  UNL1        0.0660
     38 H           9.6023    0.9568    0.0000 H       1  UNL1        0.0660
     39 H           2.2518   -2.5970    0.0000 H       1  UNL1        0.0660
     40 H           2.8742   -3.2146    0.0000 H       1  UNL1        0.0660
     41 H           3.4918   -2.5922    0.0000 H       1  UNL1        0.0660
@<TRIPOS>BOND
     1     1    10    1
     2     1    20    1
     3     2    14    1
     4     2    22    1
     5     3    15    1
     6     3    21    1
     7     4    17    1
     8     4    23    1
     9     5    18    1
    10     5    32    1
    11     6     7   ar
    12     6     8   ar
    13     6    10   ar
    14     7     9   ar
    15     7    16   ar
    16     8    11   ar
    17     8    13   ar
    18     9    12   ar
    19     9    14   ar
    20    10    15   ar
    21    11    12   ar
    22    11    24    1
    23    12    25    1
    24    13    17   ar
    25    13    26    1
    26    14    18   ar
    27    15    17   ar
    28    16    19   ar
    29    16    27    1
    30    18    19   ar
    31    19    28    1
    32    20    29    1
    33    20    30    1
    34    20    31    1
    35    21    33    1
    36    21    34    1
    37    21    35    1
    38    22    36    1
    39    22    37    1
    40    22    38    1
    41    23    39    1
    42    23    40    1
    43    23    41    1
