@<TRIPOS>MOLECULE
IMPHY012622
 50 53 0 0 0
SMALL
GASTEIGER

@<TRIPOS>ATOM
      1 O           6.4927    1.3398    0.0000 O.3     1  UNL1       -0.3430
      2 O           7.3686   -0.1984    0.0000 O.3     1  UNL1       -0.3632
      3 O           6.4749   -1.8042    0.0000 O.3     1  UNL1       -0.4909
      4 O           2.8602   -1.7903    0.0000 O.3     1  UNL1       -0.4913
      5 O           4.6635   -2.8500    0.0000 O.3     1  UNL1       -0.4885
      6 N           2.9044    1.5420    0.0000 N.3     1  UNL1       -0.2978
      7 C           4.7166    1.3467    0.0000 C.3     1  UNL1        0.0308
      8 C           3.8506    1.8467    0.0000 C.3     1  UNL1        0.0406
      9 C           5.5827    1.8467    0.0000 C.3     1  UNL1        0.0739
     10 C           3.8506    2.8467    0.0000 C.2     1  UNL1       -0.0545
     11 C           5.5827    2.8467    0.0000 C.3     1  UNL1       -0.0073
     12 C           2.9044    3.1514    0.0000 C.3     1  UNL1       -0.0174
     13 C           4.7006    0.3052    0.0000 C.ar    1  UNL1       -0.0249
     14 C           2.3208    2.3467    0.0000 C.3     1  UNL1        0.0029
     15 C           4.7166    3.3467    0.0000 C.2     1  UNL1       -0.0808
     16 C           5.5986   -0.2226    0.0000 C.ar    1  UNL1        0.0567
     17 C           6.5007    0.2982    0.0000 C.3     1  UNL1        0.1869
     18 C           2.5937    0.5914    0.0000 C.3     1  UNL1       -0.0122
     19 C           3.7487   -0.2154    0.0000 C.ar    1  UNL1       -0.0121
     20 C           5.6070   -1.3075    0.0000 C.ar    1  UNL1        0.1734
     21 C           3.7319   -1.3003    0.0000 C.ar    1  UNL1        0.1655
     22 C           4.6674   -1.8500    0.0000 C.ar    1  UNL1        0.2040
     23 C           6.4788   -2.8042    0.0000 C.3     1  UNL1        0.0790
     24 C           2.0000   -1.2803    0.0000 C.3     1  UNL1        0.0790
     25 C           3.7956   -3.3467    0.0000 C.3     1  UNL1        0.0791
     26 H           4.1773    1.0408    0.0000 H       1  UNL1        0.0393
     27 H           3.7850    1.2302    0.0000 H       1  UNL1        0.0516
     28 H           6.1172    2.1608    0.0000 H       1  UNL1        0.0607
     29 H           6.1933    2.7390    0.0000 H       1  UNL1        0.0333
     30 H           5.7947    3.4293    0.0000 H       1  UNL1        0.0333
     31 H           3.1554    3.7183    0.0000 H       1  UNL1        0.0323
     32 H           2.3670    3.4606    0.0000 H       1  UNL1        0.0323
     33 H           1.8599    2.7614    0.0000 H       1  UNL1        0.0430
     34 H           1.8599    1.9320    0.0000 H       1  UNL1        0.0430
     35 H           4.7166    3.9667    0.0000 H       1  UNL1        0.0573
     36 H           6.5019   -0.3218    0.0000 H       1  UNL1        0.0964
     37 H           2.0044    0.7840    0.0000 H       1  UNL1        0.0391
     38 H           2.4011    0.0021    0.0000 H       1  UNL1        0.0391
     39 H           3.1831    0.3988    0.0000 H       1  UNL1        0.0391
     40 H           3.2178    0.1048    0.0000 H       1  UNL1        0.0658
     41 H           7.9044    0.1136    0.0000 H       1  UNL1        0.2128
     42 H           5.8588   -2.8066    0.0000 H       1  UNL1        0.0660
     43 H           6.4812   -3.4242    0.0000 H       1  UNL1        0.0660
     44 H           7.0988   -2.8018    0.0000 H       1  UNL1        0.0660
     45 H           2.3162   -0.7470    0.0000 H       1  UNL1        0.0660
     46 H           1.4667   -0.9641    0.0000 H       1  UNL1        0.0660
     47 H           1.6838   -1.8136    0.0000 H       1  UNL1        0.0660
     48 H           3.4876   -2.8086    0.0000 H       1  UNL1        0.0660
     49 H           3.2574   -3.6546    0.0000 H       1  UNL1        0.0660
     50 H           4.1035   -3.8848    0.0000 H       1  UNL1        0.0660
@<TRIPOS>BOND
     1     1     9    1
     2     1    17    1
     3     2    17    1
     4     2    41    1
     5     3    20    1
     6     3    23    1
     7     4    21    1
     8     4    24    1
     9     5    22    1
    10     5    25    1
    11     6     8    1
    12     6    14    1
    13     6    18    1
    14     7     8    1
    15     7     9    1
    16     7    13    1
    17     7    26    1
    18     8    10    1
    19     8    27    1
    20     9    11    1
    21     9    28    1
    22    10    12    1
    23    10    15    2
    24    11    15    1
    25    11    29    1
    26    11    30    1
    27    12    14    1
    28    12    31    1
    29    12    32    1
    30    13    16   ar
    31    13    19   ar
    32    14    33    1
    33    14    34    1
    34    15    35    1
    35    16    17    1
    36    16    20   ar
    37    17    36    1
    38    18    37    1
    39    18    38    1
    40    18    39    1
    41    19    21   ar
    42    19    40    1
    43    20    22   ar
    44    21    22   ar
    45    23    42    1
    46    23    43    1
    47    23    44    1
    48    24    45    1
    49    24    46    1
    50    24    47    1
    51    25    48    1
    52    25    49    1
    53    25    50    1
