@<TRIPOS>MOLECULE
IMPHY015470
 15 14 0 0 0
SMALL
GASTEIGER

@<TRIPOS>ATOM
      1 O           4.5981    0.7500    0.0000 O.3     1  UNL1       -0.4619
      2 O           3.7320   -0.7500    0.0000 O.2     1  UNL1       -0.2456
      3 C           5.4641    0.2500    0.0000 C.3     1  UNL1        0.0900
      4 C           6.3301    0.7500    0.0000 C.3     1  UNL1       -0.0306
      5 C           3.7320    0.2500    0.0000 C.2     1  UNL1        0.3314
      6 C           2.8660    0.7500    0.0000 C.2     1  UNL1        0.0154
      7 C           2.0000    0.2500    0.0000 C.2     1  UNL1       -0.0919
      8 H           5.0656   -0.2249    0.0000 H       1  UNL1        0.0695
      9 H           5.8626   -0.2249    0.0000 H       1  UNL1        0.0695
     10 H           6.6401    0.2131    0.0000 H       1  UNL1        0.0262
     11 H           6.8671    1.0600    0.0000 H       1  UNL1        0.0262
     12 H           6.0201    1.2869    0.0000 H       1  UNL1        0.0262
     13 H           2.8660    1.3700    0.0000 H       1  UNL1        0.0683
     14 H           1.4631    0.5600    0.0000 H       1  UNL1        0.0537
     15 H           2.0000   -0.3700    0.0000 H       1  UNL1        0.0537
@<TRIPOS>BOND
     1     1     3    1
     2     1     5    1
     3     2     5    2
     4     3     4    1
     5     3     8    1
     6     3     9    1
     7     4    10    1
     8     4    11    1
     9     4    12    1
    10     5     6    1
    11     6     7    2
    12     6    13    1
    13     7    14    1
    14     7    15    1
