@<TRIPOS>MOLECULE
IMPHY002947
 97 101 0 0 0
SMALL
GASTEIGER

@<TRIPOS>ATOM
      1 O          10.3312   -2.7500    0.0000 O.3     1  UNL1       -0.3389
      2 O          10.3312    0.2500    0.0000 O.3     1  UNL1       -0.3394
      3 O          12.0632   -2.7500    0.0000 O.3     1  UNL1       -0.3431
      4 O           8.5991    1.2500    0.0000 O.3     1  UNL1       -0.3460
      5 O           8.5991   -1.7500    0.0000 O.3     1  UNL1       -0.4528
      6 O           6.8195    1.3433    0.0000 O.3     1  UNL1       -0.3457
      7 O          12.0632    0.2500    0.0000 O.3     1  UNL1       -0.3484
      8 O          12.0632   -1.7500    0.0000 O.3     1  UNL1       -0.3841
      9 O          10.3312   -4.7500    0.0000 O.3     1  UNL1       -0.3841
     10 O          12.0632   -5.7500    0.0000 O.3     1  UNL1       -0.3864
     11 O           6.8583    3.9306    0.0000 O.3     1  UNL1       -0.3812
     12 O          13.7953   -4.7500    0.0000 O.3     1  UNL1       -0.3866
     13 O           8.3717    3.4136    0.0000 O.3     1  UNL1       -0.3837
     14 O           5.7844    4.4524    0.0000 O.3     1  UNL1       -0.3920
     15 O           7.7331   -0.2500    0.0000 O.2     1  UNL1       -0.2456
     16 O          14.6613    4.7500    0.0000 O.3     1  UNL1       -0.5033
     17 O          12.9292    5.7500    0.0000 O.3     1  UNL1       -0.5033
     18 O           2.5369   -1.2500    0.0000 O.3     1  UNL1       -0.5033
     19 O           2.5369   -3.2500    0.0000 O.3     1  UNL1       -0.5033
     20 C          10.3312   -1.7500    0.0000 C.3     1  UNL1        0.1316
     21 C           9.4651   -1.2500    0.0000 C.3     1  UNL1        0.1602
     22 C           9.4651   -0.2500    0.0000 C.3     1  UNL1        0.1244
     23 C          11.1972   -1.2500    0.0000 C.3     1  UNL1        0.1355
     24 C          11.1972   -0.2500    0.0000 C.3     1  UNL1        0.1880
     25 C          11.1972   -3.2500    0.0000 C.3     1  UNL1        0.1884
     26 C          11.1972   -4.2500    0.0000 C.3     1  UNL1        0.1341
     27 C           8.5991    0.2500    0.0000 C.3     1  UNL1        0.0806
     28 C          12.0632   -4.7500    0.0000 C.3     1  UNL1        0.1140
     29 C          12.9292   -4.2500    0.0000 C.3     1  UNL1        0.1095
     30 C           6.6504    2.9524    0.0000 C.3     1  UNL1        0.1425
     31 C           7.6286    2.7445    0.0000 C.3     1  UNL1        0.1387
     32 C           7.7331    1.7500    0.0000 C.3     1  UNL1        0.1880
     33 C          12.9292   -3.2500    0.0000 C.3     1  UNL1        0.0873
     34 C           6.1504    2.0864    0.0000 C.3     1  UNL1        0.0843
     35 C           5.7844    3.4524    0.0000 C.3     1  UNL1        0.0778
     36 C          13.7953   -2.7500    0.0000 C.3     1  UNL1       -0.0361
     37 C          12.0632    1.2500    0.0000 C.3     1  UNL1        0.0547
     38 C           7.7331   -1.2500    0.0000 C.2     1  UNL1        0.3324
     39 C          12.9292    1.7500    0.0000 C.3     1  UNL1       -0.0039
     40 C           6.8671   -1.7500    0.0000 C.2     1  UNL1        0.0231
     41 C          12.9292    2.7500    0.0000 C.ar    1  UNL1       -0.0415
     42 C           6.0010   -1.2500    0.0000 C.2     1  UNL1       -0.0477
     43 C          13.7953    3.2500    0.0000 C.ar    1  UNL1       -0.0133
     44 C          12.0632    3.2500    0.0000 C.ar    1  UNL1       -0.0548
     45 C           5.1350   -1.7500    0.0000 C.ar    1  UNL1       -0.0211
     46 C          13.7953    4.2500    0.0000 C.ar    1  UNL1        0.1585
     47 C          12.0632    4.2500    0.0000 C.ar    1  UNL1       -0.0163
     48 C          12.9292    4.7500    0.0000 C.ar    1  UNL1        0.1582
     49 C           4.2690   -1.2500    0.0000 C.ar    1  UNL1       -0.0094
     50 C           5.1350   -2.7500    0.0000 C.ar    1  UNL1       -0.0509
     51 C           3.4030   -1.7500    0.0000 C.ar    1  UNL1        0.1588
     52 C           4.2690   -3.2500    0.0000 C.ar    1  UNL1       -0.0160
     53 C           3.4030   -2.7500    0.0000 C.ar    1  UNL1        0.1582
     54 H           9.7942   -2.0600    0.0000 H       1  UNL1        0.0663
     55 H           8.9282   -0.9400    0.0000 H       1  UNL1        0.0788
     56 H           9.4651    0.3700    0.0000 H       1  UNL1        0.0658
     57 H          11.7341   -0.9400    0.0000 H       1  UNL1        0.0671
     58 H          11.1972    0.3700    0.0000 H       1  UNL1        0.0937
     59 H          11.1972   -2.6300    0.0000 H       1  UNL1        0.0938
     60 H          11.1972   -4.8700    0.0000 H       1  UNL1        0.0671
     61 H           7.9885    0.3577    0.0000 H       1  UNL1        0.0588
     62 H           8.3871   -0.3326    0.0000 H       1  UNL1        0.0588
     63 H          12.6002   -5.0600    0.0000 H       1  UNL1        0.0648
     64 H          13.4662   -3.9400    0.0000 H       1  UNL1        0.0646
     65 H           7.4681    3.3434    0.0000 H       1  UNL1        0.0675
     66 H           8.2531    2.0877    0.0000 H       1  UNL1        0.0937
     67 H          12.9292   -2.6300    0.0000 H       1  UNL1        0.0621
     68 H           5.6488    2.4508    0.0000 H       1  UNL1        0.0591
     69 H           5.7356    1.6257    0.0000 H       1  UNL1        0.0591
     70 H          12.6002   -1.4400    0.0000 H       1  UNL1        0.2101
     71 H           5.1738    3.5601    0.0000 H       1  UNL1        0.0587
     72 H           5.5723    2.8698    0.0000 H       1  UNL1        0.0587
     73 H          14.1053   -3.2869    0.0000 H       1  UNL1        0.0255
     74 H          14.3322   -2.4400    0.0000 H       1  UNL1        0.0255
     75 H          13.4853   -2.2131    0.0000 H       1  UNL1        0.0255
     76 H          10.3312   -5.3700    0.0000 H       1  UNL1        0.2101
     77 H          11.8512    1.8326    0.0000 H       1  UNL1        0.0564
     78 H          11.4526    1.1423    0.0000 H       1  UNL1        0.0564
     79 H          12.6002   -6.0600    0.0000 H       1  UNL1        0.2100
     80 H           7.4480    4.1222    0.0000 H       1  UNL1        0.2105
     81 H          14.3322   -4.4400    0.0000 H       1  UNL1        0.2100
     82 H           8.9614    3.2221    0.0000 H       1  UNL1        0.2101
     83 H          13.1413    1.1674    0.0000 H       1  UNL1        0.0335
     84 H          13.5398    1.8577    0.0000 H       1  UNL1        0.0335
     85 H           5.2474    4.7624    0.0000 H       1  UNL1        0.2095
     86 H           6.8671   -2.3700    0.0000 H       1  UNL1        0.0689
     87 H           6.0010   -0.6300    0.0000 H       1  UNL1        0.0626
     88 H          14.3322    2.9400    0.0000 H       1  UNL1        0.0658
     89 H          11.5263    2.9400    0.0000 H       1  UNL1        0.0621
     90 H          11.5263    4.5600    0.0000 H       1  UNL1        0.0655
     91 H           4.2690   -0.6300    0.0000 H       1  UNL1        0.0661
     92 H           5.6720   -3.0600    0.0000 H       1  UNL1        0.0625
     93 H          15.1982    4.4400    0.0000 H       1  UNL1        0.2923
     94 H           4.2690   -3.8700    0.0000 H       1  UNL1        0.0655
     95 H          12.3923    6.0600    0.0000 H       1  UNL1        0.2923
     96 H           2.0000   -1.5600    0.0000 H       1  UNL1        0.2923
     97 H           2.5369   -3.8700    0.0000 H       1  UNL1        0.2923
@<TRIPOS>BOND
     1    20     1    1
     2    25     1    1
     3     2    22    1
     4     2    24    1
     5     3    25    1
     6     3    33    1
     7     4    27    1
     8    32     4    1
     9    21     5    1
    10     5    38    1
    11     6    32    1
    12     6    34    1
    13    24     7    1
    14     7    37    1
    15    23     8    1
    16     8    70    1
    17    26     9    1
    18     9    76    1
    19    28    10    1
    20    10    79    1
    21    30    11    1
    22    11    80    1
    23    29    12    1
    24    12    81    1
    25    31    13    1
    26    13    82    1
    27    14    35    1
    28    14    85    1
    29    15    38    2
    30    16    46    1
    31    16    93    1
    32    17    48    1
    33    17    95    1
    34    18    51    1
    35    18    96    1
    36    19    53    1
    37    19    97    1
    38    20    21    1
    39    20    23    1
    40    20    54    1
    41    21    22    1
    42    21    55    1
    43    22    27    1
    44    22    56    1
    45    23    24    1
    46    23    57    1
    47    24    58    1
    48    25    26    1
    49    25    59    1
    50    26    28    1
    51    26    60    1
    52    27    61    1
    53    27    62    1
    54    28    29    1
    55    28    63    1
    56    29    33    1
    57    29    64    1
    58    30    31    1
    59    30    34    1
    60    30    35    1
    61    31    32    1
    62    31    65    1
    63    32    66    1
    64    33    36    1
    65    33    67    1
    66    34    68    1
    67    34    69    1
    68    35    71    1
    69    35    72    1
    70    36    73    1
    71    36    74    1
    72    36    75    1
    73    37    39    1
    74    37    77    1
    75    37    78    1
    76    38    40    1
    77    39    41    1
    78    39    83    1
    79    39    84    1
    80    40    42    2
    81    40    86    1
    82    41    43   ar
    83    41    44   ar
    84    42    45    1
    85    42    87    1
    86    43    46   ar
    87    43    88    1
    88    44    47   ar
    89    44    89    1
    90    45    49   ar
    91    45    50   ar
    92    46    48   ar
    93    47    48   ar
    94    47    90    1
    95    49    51   ar
    96    49    91    1
    97    50    52   ar
    98    50    92    1
    99    51    53   ar
   100    52    53   ar
   101    52    94    1
