@<TRIPOS>MOLECULE
IMPHY007106
 29 30 0 0 0
SMALL
GASTEIGER

@<TRIPOS>ATOM
      1 O           6.3580   -1.0347    0.0000 O.2     1  UNL1       -0.4182
      2 O           4.5981   -2.0000    0.0000 O.3     1  UNL1       -0.4885
      3 O           4.5981    2.0000    0.0000 O.3     1  UNL1       -0.4943
      4 O           2.8660   -1.0000    0.0000 O.3     1  UNL1       -0.4912
      5 O           8.1282   -1.0241    0.0000 O.2     1  UNL1       -0.2452
      6 C           5.4641    0.5000    0.0000 C.ar    1  UNL1        0.0631
      7 C           5.4641   -0.5000    0.0000 C.ar    1  UNL1        0.1876
      8 C           4.5981   -1.0000    0.0000 C.ar    1  UNL1        0.2051
      9 C           4.5981    1.0000    0.0000 C.ar    1  UNL1        0.1344
     10 C           3.7320   -0.5000    0.0000 C.ar    1  UNL1        0.1687
     11 C           3.7320    0.5000    0.0000 C.ar    1  UNL1        0.0262
     12 C           6.3580    1.0347    0.0000 C.ar    1  UNL1       -0.0407
     13 C           7.2641    0.5208    0.0000 C.ar    1  UNL1        0.0237
     14 C           7.2641   -0.5208    0.0000 C.ar    1  UNL1        0.3373
     15 C           3.7320   -2.5000    0.0000 C.3     1  UNL1        0.0791
     16 C           3.7320    2.5000    0.0000 C.3     1  UNL1        0.0788
     17 C           2.0000   -0.5000    0.0000 C.3     1  UNL1        0.0790
     18 H           3.1951    0.8100    0.0000 H       1  UNL1        0.0692
     19 H           6.3509    1.6546    0.0000 H       1  UNL1        0.0628
     20 H           7.7998    0.8329    0.0000 H       1  UNL1        0.0689
     21 H           3.4220   -1.9631    0.0000 H       1  UNL1        0.0660
     22 H           3.1951   -2.8100    0.0000 H       1  UNL1        0.0660
     23 H           4.0420   -3.0369    0.0000 H       1  UNL1        0.0660
     24 H           4.0420    3.0369    0.0000 H       1  UNL1        0.0660
     25 H           3.1951    2.8100    0.0000 H       1  UNL1        0.0660
     26 H           3.4220    1.9631    0.0000 H       1  UNL1        0.0660
     27 H           2.3100    0.0369    0.0000 H       1  UNL1        0.0660
     28 H           1.4631   -0.1900    0.0000 H       1  UNL1        0.0660
     29 H           1.6900   -1.0369    0.0000 H       1  UNL1        0.0660
@<TRIPOS>BOND
     1     1     7   ar
     2     1    14   ar
     3     2     8    1
     4     2    15    1
     5     3     9    1
     6     3    16    1
     7     4    10    1
     8     4    17    1
     9     5    14    2
    10     6     7   ar
    11     6     9   ar
    12     6    12   ar
    13     7     8   ar
    14     8    10   ar
    15     9    11   ar
    16    10    11   ar
    17    11    18    1
    18    12    13   ar
    19    12    19    1
    20    13    14   ar
    21    13    20    1
    22    15    21    1
    23    15    22    1
    24    15    23    1
    25    16    24    1
    26    16    25    1
    27    16    26    1
    28    17    27    1
    29    17    28    1
    30    17    29    1
