@<TRIPOS>MOLECULE
IMPHY001394
 43 45 0 0 0
SMALL
GASTEIGER

@<TRIPOS>ATOM
      1 O           5.5851   -0.3586    0.0000 O.3     1  UNL1       -0.4569
      2 O           6.5407   -2.1051    0.0000 O.3     1  UNL1       -0.4676
      3 O           8.2717   -2.0446    0.0000 O.2     1  UNL1       -0.2504
      4 O           4.9927    1.2690    0.0000 O.2     1  UNL1       -0.2450
      5 N           8.0971    2.2384    0.0000 N.3     1  UNL1       -0.2984
      6 C           8.5749    0.2899    0.0000 C.3     1  UNL1        0.0268
      7 C           8.8337    1.2558    0.0000 C.3     1  UNL1        0.0138
      8 C           7.3538   -0.5758    0.0000 C.3     1  UNL1        0.1087
      9 C           9.9738   -0.2189    0.0000 C.3     1  UNL1       -0.0350
     10 C          10.2326    0.7470    0.0000 C.3     1  UNL1       -0.0358
     11 C           6.8004    0.9447    0.0000 C.3     1  UNL1        0.0008
     12 C           6.5248   -0.0166    0.0000 C.3     1  UNL1        0.1191
     13 C           7.5971    3.1045    0.0000 C.3     1  UNL1       -0.0122
     14 C           7.3888   -1.5752    0.0000 C.2     1  UNL1        0.3150
     15 C           4.8191    0.2842    0.0000 C.2     1  UNL1        0.3395
     16 C           6.5756   -3.1045    0.0000 C.3     1  UNL1        0.0817
     17 C           3.8794   -0.0578    0.0000 C.ar    1  UNL1        0.0590
     18 C           3.1133    0.5850    0.0000 C.ar    1  UNL1       -0.0478
     19 C           3.7057   -1.0426    0.0000 C.ar    1  UNL1       -0.0478
     20 C           2.1736    0.2429    0.0000 C.ar    1  UNL1       -0.0610
     21 C           2.7660   -1.3846    0.0000 C.ar    1  UNL1       -0.0610
     22 C           2.0000   -0.7419    0.0000 C.ar    1  UNL1       -0.0617
     23 H           8.3549   -0.5311    0.0000 H       1  UNL1        0.0472
     24 H           9.0537    2.0769    0.0000 H       1  UNL1        0.0464
     25 H           6.8116   -0.8763    0.0000 H       1  UNL1        0.0466
     26 H           9.7789   -0.8075    0.0000 H       1  UNL1        0.0281
     27 H          10.5678   -0.3967    0.0000 H       1  UNL1        0.0281
     28 H          10.8266    0.5692    0.0000 H       1  UNL1        0.0281
     29 H          10.4276    1.3356    0.0000 H       1  UNL1        0.0281
     30 H           6.7954    1.5647    0.0000 H       1  UNL1        0.0316
     31 H           6.1861    1.0285    0.0000 H       1  UNL1        0.0316
     32 H           6.4493   -0.6319    0.0000 H       1  UNL1        0.0743
     33 H           8.1340    3.4145    0.0000 H       1  UNL1        0.0391
     34 H           7.2871    3.6414    0.0000 H       1  UNL1        0.0391
     35 H           7.0601    2.7945    0.0000 H       1  UNL1        0.0391
     36 H           5.9560   -3.1261    0.0000 H       1  UNL1        0.0661
     37 H           6.5972   -3.7241    0.0000 H       1  UNL1        0.0661
     38 H           7.1952   -3.0828    0.0000 H       1  UNL1        0.0661
     39 H           3.2210    1.1955    0.0000 H       1  UNL1        0.0626
     40 H           4.1807   -1.4412    0.0000 H       1  UNL1        0.0626
     41 H           1.6987    0.6415    0.0000 H       1  UNL1        0.0618
     42 H           2.6584   -1.9952    0.0000 H       1  UNL1        0.0618
     43 H           1.4174   -0.9539    0.0000 H       1  UNL1        0.0618
@<TRIPOS>BOND
     1    12     1    1
     2     1    15    1
     3     2    14    1
     4     2    16    1
     5     3    14    2
     6     4    15    2
     7     5     6    1
     8     5     7    1
     9     5    13    1
    10     6     8    1
    11     6     9    1
    12     6    23    1
    13     7    10    1
    14     7    11    1
    15     7    24    1
    16     8    12    1
    17     8    14    1
    18     8    25    1
    19     9    10    1
    20     9    26    1
    21     9    27    1
    22    10    28    1
    23    10    29    1
    24    11    12    1
    25    11    30    1
    26    11    31    1
    27    12    32    1
    28    13    33    1
    29    13    34    1
    30    13    35    1
    31    15    17    1
    32    16    36    1
    33    16    37    1
    34    16    38    1
    35    17    18   ar
    36    17    19   ar
    37    18    20   ar
    38    18    39    1
    39    19    21   ar
    40    19    40    1
    41    20    22   ar
    42    20    41    1
    43    21    22   ar
    44    21    42    1
    45    22    43    1
