@<TRIPOS>MOLECULE
IMPHY013561
 135 143 0 0 0
SMALL
GASTEIGER

@<TRIPOS>ATOM
      1 O           5.6165    5.0555    0.0000 O.3     1  UNL1       -0.3448
      2 O           4.4522    3.4472    0.0000 O.3     1  UNL1       -0.3480
      3 O          10.1438    1.0816    0.0000 O.3     1  UNL1       -0.3444
      4 O          13.5310    2.3441    0.0000 O.3     1  UNL1       -0.4611
      5 O           8.4118    1.0816    0.0000 O.3     1  UNL1       -0.3431
      6 O          10.1438   -0.9184    0.0000 O.3     1  UNL1       -0.3378
      7 O           8.4118   -1.9184    0.0000 O.3     1  UNL1       -0.3401
      8 O          13.8054    4.0543    0.0000 O.2     1  UNL1       -0.2512
      9 O           6.6797   -0.9184    0.0000 O.3     1  UNL1       -0.3866
     10 O          11.6438   -0.0523    0.0000 O.3     1  UNL1       -0.3431
     11 O           6.6797   -1.9184    0.0000 O.3     1  UNL1       -0.3461
     12 O          11.1438   -2.6504    0.0000 O.3     1  UNL1       -0.3841
     13 O          13.1438   -2.6504    0.0000 O.3     1  UNL1       -0.3864
     14 O           8.4118   -3.9184    0.0000 O.3     1  UNL1       -0.3841
     15 O          14.1438   -0.9184    0.0000 O.3     1  UNL1       -0.3866
     16 O           6.6797   -4.9184    0.0000 O.3     1  UNL1       -0.3864
     17 O           4.9477   -3.9184    0.0000 O.3     1  UNL1       -0.3869
     18 C           7.4171    3.3549    0.0000 C.3     1  UNL1       -0.0233
     19 C           8.0449    4.1331    0.0000 C.3     1  UNL1       -0.0295
     20 C           6.4893    3.7119    0.0000 C.3     1  UNL1       -0.0015
     21 C           9.0329    3.9785    0.0000 C.3     1  UNL1       -0.0305
     22 C           6.5403    4.7046    0.0000 C.3     1  UNL1        0.0660
     23 C           9.3930    3.0456    0.0000 C.3     1  UNL1       -0.0262
     24 C           7.4998    4.9644    0.0000 C.3     1  UNL1       -0.0226
     25 C           7.7771    2.4220    0.0000 C.3     1  UNL1       -0.0467
     26 C           5.5343    3.4577    0.0000 C.3     1  UNL1        0.0160
     27 C           8.7650    2.2673    0.0000 C.3     1  UNL1       -0.0486
     28 C          10.4194    2.8687    0.0000 C.3     1  UNL1        0.0185
     29 C           4.9961    4.2864    0.0000 C.3     1  UNL1        0.1732
     30 C           6.7891    2.5766    0.0000 C.3     1  UNL1       -0.0590
     31 C           9.6744    4.7992    0.0000 C.3     1  UNL1       -0.0311
     32 C          11.0797    3.6743    0.0000 C.2     1  UNL1       -0.0613
     33 C          10.7866    1.8477    0.0000 C.3     1  UNL1        0.0744
     34 C           5.1752    2.5244    0.0000 C.3     1  UNL1       -0.0572
     35 C          10.7047    4.6460    0.0000 C.2     1  UNL1       -0.0838
     36 C           4.5412    5.1770    0.0000 C.3     1  UNL1        0.0020
     37 C           9.7856    2.0952    0.0000 C.3     1  UNL1       -0.0532
     38 C          12.1529    3.5148    0.0000 C.3     1  UNL1        0.0062
     39 C          11.8558    1.6634    0.0000 C.3     1  UNL1        0.0119
     40 C          12.5436    2.5026    0.0000 C.3     1  UNL1        0.1091
     41 C           3.5425    5.2284    0.0000 C.3     1  UNL1       -0.0435
     42 C           2.9987    4.3892    0.0000 C.3     1  UNL1       -0.0201
     43 C           3.4535    3.4986    0.0000 C.3     1  UNL1        0.0535
     44 C           9.2778    0.5816    0.0000 C.3     1  UNL1        0.1885
     45 C           2.0000    4.4406    0.0000 C.3     1  UNL1       -0.0603
     46 C           9.2778   -0.4184    0.0000 C.3     1  UNL1        0.1410
     47 C           8.4118   -0.9184    0.0000 C.3     1  UNL1        0.1209
     48 C          14.1619    3.1200    0.0000 C.2     1  UNL1        0.3042
     49 C           7.5457    0.5816    0.0000 C.3     1  UNL1        0.0873
     50 C           7.5457   -0.4184    0.0000 C.3     1  UNL1        0.1099
     51 C          15.1492    2.9615    0.0000 C.3     1  UNL1        0.0332
     52 C           6.6797    1.0816    0.0000 C.3     1  UNL1       -0.0361
     53 C          11.1438   -0.9184    0.0000 C.3     1  UNL1        0.1884
     54 C           7.5457   -2.4184    0.0000 C.3     1  UNL1        0.1880
     55 C          11.6438   -1.7844    0.0000 C.3     1  UNL1        0.1341
     56 C          12.6438   -1.7844    0.0000 C.3     1  UNL1        0.1140
     57 C           7.5457   -3.4184    0.0000 C.3     1  UNL1        0.1341
     58 C          12.6438   -0.0523    0.0000 C.3     1  UNL1        0.0873
     59 C          13.1438   -0.9184    0.0000 C.3     1  UNL1        0.1095
     60 C           6.6797   -3.9184    0.0000 C.3     1  UNL1        0.1137
     61 C           5.8137   -2.4184    0.0000 C.3     1  UNL1        0.0792
     62 C           5.8137   -3.4184    0.0000 C.3     1  UNL1        0.1069
     63 C          13.1438    0.8137    0.0000 C.3     1  UNL1       -0.0361
     64 H           8.5056    4.8474    0.0000 H       1  UNL1        0.0310
     65 H           6.4438    2.8631    0.0000 H       1  UNL1        0.0335
     66 H           8.7207    4.7691    0.0000 H       1  UNL1        0.0310
     67 H           6.5822    5.5536    0.0000 H       1  UNL1        0.0600
     68 H           9.9318    3.7030    0.0000 H       1  UNL1        0.0313
     69 H           8.0512    5.2480    0.0000 H       1  UNL1        0.0293
     70 H           7.2758    5.5425    0.0000 H       1  UNL1        0.0293
     71 H           7.1687    2.3026    0.0000 H       1  UNL1        0.0271
     72 H           7.7890    1.8021    0.0000 H       1  UNL1        0.0271
     73 H           5.9486    2.9964    0.0000 H       1  UNL1        0.0354
     74 H           8.5642    1.6807    0.0000 H       1  UNL1        0.0268
     75 H           9.3078    1.9677    0.0000 H       1  UNL1        0.0268
     76 H           6.3066    2.9659    0.0000 H       1  UNL1        0.0235
     77 H           6.3998    2.0941    0.0000 H       1  UNL1        0.0235
     78 H           7.2717    2.1873    0.0000 H       1  UNL1        0.0235
     79 H           9.8691    5.3878    0.0000 H       1  UNL1        0.0310
     80 H           9.1277    5.0918    0.0000 H       1  UNL1        0.0310
     81 H          10.9998    1.2655    0.0000 H       1  UNL1        0.0607
     82 H           4.5966    2.7470    0.0000 H       1  UNL1        0.0234
     83 H           4.9526    1.9457    0.0000 H       1  UNL1        0.0234
     84 H           5.7539    2.3017    0.0000 H       1  UNL1        0.0234
     85 H          11.0921    5.1301    0.0000 H       1  UNL1        0.0572
     86 H           5.1340    5.3588    0.0000 H       1  UNL1        0.0317
     87 H           4.4651    5.7923    0.0000 H       1  UNL1        0.0317
     88 H           9.3060    2.4882    0.0000 H       1  UNL1        0.0239
     89 H           9.3926    1.6157    0.0000 H       1  UNL1        0.0239
     90 H          10.2651    1.7022    0.0000 H       1  UNL1        0.0239
     91 H          12.7610    3.6357    0.0000 H       1  UNL1        0.0346
     92 H          12.1378    4.1346    0.0000 H       1  UNL1        0.0346
     93 H          11.6475    1.0794    0.0000 H       1  UNL1        0.0326
     94 H          12.3955    1.3582    0.0000 H       1  UNL1        0.0326
     95 H          12.9338    2.9843    0.0000 H       1  UNL1        0.0738
     96 H           3.6814    5.8326    0.0000 H       1  UNL1        0.0270
     97 H           2.9716    5.4701    0.0000 H       1  UNL1        0.0270
     98 H           2.7167    4.9413    0.0000 H       1  UNL1        0.0320
     99 H           2.8608    3.3168    0.0000 H       1  UNL1        0.0563
    100 H           3.5297    2.8833    0.0000 H       1  UNL1        0.0563
    101 H           9.8147    0.2716    0.0000 H       1  UNL1        0.0938
    102 H           2.0319    5.0597    0.0000 H       1  UNL1        0.0233
    103 H           1.3808    4.4724    0.0000 H       1  UNL1        0.0233
    104 H           1.9681    3.8214    0.0000 H       1  UNL1        0.0233
    105 H           9.2778   -1.0384    0.0000 H       1  UNL1        0.0675
    106 H           7.8748   -1.2284    0.0000 H       1  UNL1        0.0651
    107 H           7.5457    1.2016    0.0000 H       1  UNL1        0.0621
    108 H           7.0088   -0.1084    0.0000 H       1  UNL1        0.0646
    109 H          15.0510    2.3494    0.0000 H       1  UNL1        0.0342
    110 H          15.7614    2.8633    0.0000 H       1  UNL1        0.0342
    111 H          15.2475    3.5737    0.0000 H       1  UNL1        0.0342
    112 H           6.9897    1.6186    0.0000 H       1  UNL1        0.0255
    113 H           6.1428    1.3916    0.0000 H       1  UNL1        0.0255
    114 H           6.3697    0.5447    0.0000 H       1  UNL1        0.0255
    115 H          10.8338   -1.4553    0.0000 H       1  UNL1        0.0938
    116 H           6.1428   -0.6084    0.0000 H       1  UNL1        0.2100
    117 H           8.0827   -2.7284    0.0000 H       1  UNL1        0.0937
    118 H          11.9538   -2.3213    0.0000 H       1  UNL1        0.0671
    119 H          12.3338   -2.3213    0.0000 H       1  UNL1        0.0648
    120 H           7.5457   -4.0384    0.0000 H       1  UNL1        0.0671
    121 H          12.3338    0.4846    0.0000 H       1  UNL1        0.0621
    122 H          13.4538   -1.4553    0.0000 H       1  UNL1        0.0646
    123 H           6.1428   -4.2284    0.0000 H       1  UNL1        0.0647
    124 H          11.4538   -3.1874    0.0000 H       1  UNL1        0.2101
    125 H           5.6016   -1.8358    0.0000 H       1  UNL1        0.0587
    126 H           5.2031   -2.5260    0.0000 H       1  UNL1        0.0587
    127 H           5.2768   -3.1084    0.0000 H       1  UNL1        0.0643
    128 H          13.6808    0.5037    0.0000 H       1  UNL1        0.0255
    129 H          13.4538    1.3506    0.0000 H       1  UNL1        0.0255
    130 H          12.6069    1.1237    0.0000 H       1  UNL1        0.0255
    131 H          13.7638   -2.6504    0.0000 H       1  UNL1        0.2100
    132 H           8.4118   -4.5384    0.0000 H       1  UNL1        0.2101
    133 H          14.4538   -1.4553    0.0000 H       1  UNL1        0.2100
    134 H           6.1428   -5.2284    0.0000 H       1  UNL1        0.2100
    135 H           4.4107   -3.6084    0.0000 H       1  UNL1        0.2100
@<TRIPOS>BOND
     1     1    22    1
     2    29     1    1
     3     2    29    1
     4     2    43    1
     5    33     3    1
     6    44     3    1
     7    40     4    1
     8     4    48    1
     9     5    44    1
    10     5    49    1
    11    46     6    1
    12    53     6    1
    13    47     7    1
    14    54     7    1
    15     8    48    2
    16    50     9    1
    17     9   116    1
    18    10    53    1
    19    10    58    1
    20    11    54    1
    21    11    61    1
    22    55    12    1
    23    12   124    1
    24    56    13    1
    25    13   131    1
    26    57    14    1
    27    14   132    1
    28    59    15    1
    29    15   133    1
    30    60    16    1
    31    16   134    1
    32    62    17    1
    33    17   135    1
    34    18    19    1
    35    18    20    1
    36    18    25    1
    37    18    30    1
    38    19    21    1
    39    19    24    1
    40    19    64    1
    41    20    22    1
    42    20    26    1
    43    20    65    1
    44    21    23    1
    45    21    31    1
    46    21    66    1
    47    22    24    1
    48    22    67    1
    49    23    27    1
    50    23    28    1
    51    23    68    1
    52    24    69    1
    53    24    70    1
    54    25    27    1
    55    25    71    1
    56    25    72    1
    57    26    29    1
    58    26    34    1
    59    26    73    1
    60    27    74    1
    61    27    75    1
    62    28    32    1
    63    28    33    1
    64    28    37    1
    65    29    36    1
    66    30    76    1
    67    30    77    1
    68    30    78    1
    69    31    35    1
    70    31    79    1
    71    31    80    1
    72    32    35    2
    73    32    38    1
    74    33    39    1
    75    33    81    1
    76    34    82    1
    77    34    83    1
    78    34    84    1
    79    35    85    1
    80    36    41    1
    81    36    86    1
    82    36    87    1
    83    37    88    1
    84    37    89    1
    85    37    90    1
    86    38    40    1
    87    38    91    1
    88    38    92    1
    89    39    40    1
    90    39    93    1
    91    39    94    1
    92    40    95    1
    93    41    42    1
    94    41    96    1
    95    41    97    1
    96    42    43    1
    97    42    45    1
    98    42    98    1
    99    43    99    1
   100    43   100    1
   101    44    46    1
   102    44   101    1
   103    45   102    1
   104    45   103    1
   105    45   104    1
   106    46    47    1
   107    46   105    1
   108    47    50    1
   109    47   106    1
   110    48    51    1
   111    49    50    1
   112    49    52    1
   113    49   107    1
   114    50   108    1
   115    51   109    1
   116    51   110    1
   117    51   111    1
   118    52   112    1
   119    52   113    1
   120    52   114    1
   121    53    55    1
   122    53   115    1
   123    54    57    1
   124    54   117    1
   125    55    56    1
   126    55   118    1
   127    56    59    1
   128    56   119    1
   129    57    60    1
   130    57   120    1
   131    58    59    1
   132    58    63    1
   133    58   121    1
   134    59   122    1
   135    60    62    1
   136    60   123    1
   137    61    62    1
   138    61   125    1
   139    61   126    1
   140    62   127    1
   141    63   128    1
   142    63   129    1
   143    63   130    1
