@<TRIPOS>MOLECULE
IMPHY011984
 25 25 0 0 0
SMALL
GASTEIGER

@<TRIPOS>ATOM
      1 O           4.5981    1.7500    0.0000 O.3     1  UNL1       -0.4618
      2 O           2.8660    1.7500    0.0000 O.2     1  UNL1       -0.2456
      3 C           2.8660   -1.2500    0.0000 C.ar    1  UNL1       -0.0248
      4 C           2.0000   -1.7500    0.0000 C.ar    1  UNL1       -0.0546
      5 C           3.7320   -1.7500    0.0000 C.ar    1  UNL1       -0.0546
      6 C           2.8660   -0.2500    0.0000 C.2     1  UNL1       -0.0478
      7 C           4.5981    2.7500    0.0000 C.3     1  UNL1        0.0900
      8 C           2.0000   -2.7500    0.0000 C.ar    1  UNL1       -0.0612
      9 C           3.7320   -2.7500    0.0000 C.ar    1  UNL1       -0.0612
     10 C           2.8660   -3.2500    0.0000 C.ar    1  UNL1       -0.0617
     11 C           3.7320    0.2500    0.0000 C.2     1  UNL1        0.0231
     12 C           5.4641    3.2500    0.0000 C.3     1  UNL1       -0.0306
     13 C           3.7320    1.2500    0.0000 C.2     1  UNL1        0.3319
     14 H           1.4631   -1.4400    0.0000 H       1  UNL1        0.0623
     15 H           4.2690   -1.4400    0.0000 H       1  UNL1        0.0623
     16 H           2.3291    0.0600    0.0000 H       1  UNL1        0.0626
     17 H           4.3860    3.3326    0.0000 H       1  UNL1        0.0695
     18 H           3.9875    2.6423    0.0000 H       1  UNL1        0.0695
     19 H           1.4631   -3.0600    0.0000 H       1  UNL1        0.0618
     20 H           4.2690   -3.0600    0.0000 H       1  UNL1        0.0618
     21 H           4.2690   -0.0600    0.0000 H       1  UNL1        0.0689
     22 H           2.8660   -3.8700    0.0000 H       1  UNL1        0.0618
     23 H           5.7741    2.7131    0.0000 H       1  UNL1        0.0262
     24 H           6.0010    3.5600    0.0000 H       1  UNL1        0.0262
     25 H           5.1541    3.7869    0.0000 H       1  UNL1        0.0262
@<TRIPOS>BOND
     1     1     7    1
     2     1    13    1
     3     2    13    2
     4     3     4   ar
     5     3     5   ar
     6     3     6    1
     7     4     8   ar
     8     4    14    1
     9     5     9   ar
    10     5    15    1
    11     6    11    2
    12     6    16    1
    13     7    12    1
    14     7    17    1
    15     7    18    1
    16     8    10   ar
    17     8    19    1
    18     9    10   ar
    19     9    20    1
    20    10    22    1
    21    11    13    1
    22    11    21    1
    23    12    23    1
    24    12    24    1
    25    12    25    1
