@<TRIPOS>MOLECULE
IMPHY012219
 32 34 0 0 0
SMALL
GASTEIGER

@<TRIPOS>ATOM
      1 O           6.4260    1.0347    0.0000 O.2     1  UNL1       -0.4820
      2 O           4.6660   -2.0000    0.0000 O.2     1  UNL1       -0.2868
      3 O           4.6660    2.0000    0.0000 O.2     1  UNL1       -0.2834
      4 C           7.3321    0.5208    0.0000 C.3     1  UNL1        0.1056
      5 C           7.3321   -0.5208    0.0000 C.3     1  UNL1       -0.0092
      6 C           6.4260   -1.0347    0.0000 C.3     1  UNL1       -0.0168
      7 C           5.5321   -0.5000    0.0000 C.2     1  UNL1        0.0454
      8 C           5.5321    0.5000    0.0000 C.2     1  UNL1        0.1751
      9 C           8.3321    0.5247    0.0000 C.3     1  UNL1       -0.0252
     10 C           7.8287    1.3888    0.0000 C.3     1  UNL1       -0.0252
     11 C           4.6660   -1.0000    0.0000 C.2     1  UNL1        0.1935
     12 C           4.6660    1.0000    0.0000 C.2     1  UNL1        0.2284
     13 C           3.8000   -0.5000    0.0000 C.ar    1  UNL1        0.0330
     14 C           3.8000    0.5000    0.0000 C.ar    1  UNL1        0.0362
     15 C           2.9061   -1.0347    0.0000 C.ar    1  UNL1       -0.0502
     16 C           2.9061    1.0347    0.0000 C.ar    1  UNL1       -0.0501
     17 C           2.0000   -0.5208    0.0000 C.ar    1  UNL1       -0.0610
     18 C           2.0000    0.5208    0.0000 C.ar    1  UNL1       -0.0610
     19 H           7.5411   -1.1045    0.0000 H       1  UNL1        0.0307
     20 H           7.9429   -0.4147    0.0000 H       1  UNL1        0.0307
     21 H           6.0214   -1.5044    0.0000 H       1  UNL1        0.0317
     22 H           6.8196   -1.5137    0.0000 H       1  UNL1        0.0317
     23 H           8.3344   -0.0953    0.0000 H       1  UNL1        0.0268
     24 H           8.9521    0.5271    0.0000 H       1  UNL1        0.0268
     25 H           8.3297    1.1447    0.0000 H       1  UNL1        0.0268
     26 H           8.3668    1.0808    0.0000 H       1  UNL1        0.0268
     27 H           8.1366    1.9269    0.0000 H       1  UNL1        0.0268
     28 H           7.2906    1.6967    0.0000 H       1  UNL1        0.0268
     29 H           2.9132   -1.6546    0.0000 H       1  UNL1        0.0625
     30 H           2.9132    1.6546    0.0000 H       1  UNL1        0.0625
     31 H           1.4643   -0.8329    0.0000 H       1  UNL1        0.0618
     32 H           1.4643    0.8329    0.0000 H       1  UNL1        0.0618
@<TRIPOS>BOND
     1     1     4    1
     2     1     8    1
     3     2    11    2
     4     3    12    2
     5     4     5    1
     6     4     9    1
     7     4    10    1
     8     5     6    1
     9     5    19    1
    10     5    20    1
    11     6     7    1
    12     6    21    1
    13     6    22    1
    14     7     8    2
    15     7    11    1
    16     8    12    1
    17     9    23    1
    18     9    24    1
    19     9    25    1
    20    10    26    1
    21    10    27    1
    22    10    28    1
    23    11    13    1
    24    12    14    1
    25    13    14   ar
    26    13    15   ar
    27    14    16   ar
    28    15    17   ar
    29    15    29    1
    30    16    18   ar
    31    16    30    1
    32    17    18   ar
    33    17    31    1
    34    18    32    1
