@<TRIPOS>MOLECULE
IMPHY010589
 61 63 0 0 0
SMALL
GASTEIGER

@<TRIPOS>ATOM
      1 O           7.1962    2.5000    0.0000 O.3     1  UNL1       -0.4629
      2 O           4.5981    2.0000    0.0000 O.2     1  UNL1       -0.2738
      3 O           2.0000   -0.5000    0.0000 O.2     1  UNL1       -0.2702
      4 O           6.3301    4.0000    0.0000 O.2     1  UNL1       -0.2512
      5 N           5.4641    0.5000    0.0000 N.am    1  UNL1       -0.3074
      6 N           3.7320   -0.5000    0.0000 N.am    1  UNL1       -0.2997
      7 C           6.3301    1.0000    0.0000 C.3     1  UNL1        0.0612
      8 C           3.7320    0.5000    0.0000 C.3     1  UNL1        0.1036
      9 C           7.1962    0.5000    0.0000 C.3     1  UNL1       -0.0060
     10 C           2.8660    1.0000    0.0000 C.3     1  UNL1       -0.0006
     11 C           4.5981    1.0000    0.0000 C.2     1  UNL1        0.2340
     12 C           6.3301    2.0000    0.0000 C.3     1  UNL1        0.1110
     13 C           8.0622    1.0000    0.0000 C.ar    1  UNL1       -0.0455
     14 C           2.8660    2.0000    0.0000 C.ar    1  UNL1       -0.0451
     15 C           8.9282    0.5000    0.0000 C.ar    1  UNL1       -0.0585
     16 C           8.0622    2.0000    0.0000 C.ar    1  UNL1       -0.0585
     17 C           2.8660   -1.0000    0.0000 C.2     1  UNL1        0.2447
     18 C           3.7320    2.5000    0.0000 C.ar    1  UNL1       -0.0585
     19 C           2.0000    2.5000    0.0000 C.ar    1  UNL1       -0.0585
     20 C           9.7942    1.0000    0.0000 C.ar    1  UNL1       -0.0615
     21 C           8.9282    2.5000    0.0000 C.ar    1  UNL1       -0.0615
     22 C           2.8660   -2.0000    0.0000 C.ar    1  UNL1        0.0367
     23 C           3.7320    3.5000    0.0000 C.ar    1  UNL1       -0.0615
     24 C           2.0000    3.5000    0.0000 C.ar    1  UNL1       -0.0615
     25 C           9.7942    2.0000    0.0000 C.ar    1  UNL1       -0.0617
     26 C           2.8660    4.0000    0.0000 C.ar    1  UNL1       -0.0617
     27 C           7.1962    3.5000    0.0000 C.2     1  UNL1        0.3040
     28 C           2.0000   -2.5000    0.0000 C.ar    1  UNL1       -0.0496
     29 C           3.7320   -2.5000    0.0000 C.ar    1  UNL1       -0.0496
     30 C           8.0622    4.0000    0.0000 C.3     1  UNL1        0.0332
     31 C           2.0000   -3.5000    0.0000 C.ar    1  UNL1       -0.0610
     32 C           3.7320   -3.5000    0.0000 C.ar    1  UNL1       -0.0610
     33 C           2.8660   -4.0000    0.0000 C.ar    1  UNL1       -0.0617
     34 H           5.7932    1.3100    0.0000 H       1  UNL1        0.0535
     35 H           4.2690    0.1900    0.0000 H       1  UNL1        0.0598
     36 H           6.7976    0.0251    0.0000 H       1  UNL1        0.0332
     37 H           7.5947    0.0251    0.0000 H       1  UNL1        0.0332
     38 H           5.4641   -0.1200    0.0000 H       1  UNL1        0.1492
     39 H           2.2554    1.1077    0.0000 H       1  UNL1        0.0336
     40 H           2.6540    0.4174    0.0000 H       1  UNL1        0.0336
     41 H           6.1181    2.5826    0.0000 H       1  UNL1        0.0716
     42 H           5.7196    1.8923    0.0000 H       1  UNL1        0.0716
     43 H           4.2690   -0.8100    0.0000 H       1  UNL1        0.1498
     44 H           8.9282   -0.1200    0.0000 H       1  UNL1        0.0620
     45 H           7.5252    2.3100    0.0000 H       1  UNL1        0.0620
     46 H           4.2690    2.1900    0.0000 H       1  UNL1        0.0620
     47 H           1.4631    2.1900    0.0000 H       1  UNL1        0.0620
     48 H          10.3312    0.6900    0.0000 H       1  UNL1        0.0618
     49 H           8.9282    3.1200    0.0000 H       1  UNL1        0.0618
     50 H           4.2690    3.8100    0.0000 H       1  UNL1        0.0618
     51 H           1.4631    3.8100    0.0000 H       1  UNL1        0.0618
     52 H          10.3312    2.3100    0.0000 H       1  UNL1        0.0618
     53 H           2.8660    4.6200    0.0000 H       1  UNL1        0.0618
     54 H           1.4631   -2.1900    0.0000 H       1  UNL1        0.0625
     55 H           4.2690   -2.1900    0.0000 H       1  UNL1        0.0625
     56 H           8.3722    3.4631    0.0000 H       1  UNL1        0.0342
     57 H           8.5991    4.3100    0.0000 H       1  UNL1        0.0342
     58 H           7.7522    4.5369    0.0000 H       1  UNL1        0.0342
     59 H           1.4631   -3.8100    0.0000 H       1  UNL1        0.0618
     60 H           4.2690   -3.8100    0.0000 H       1  UNL1        0.0618
     61 H           2.8660   -4.6200    0.0000 H       1  UNL1        0.0618
@<TRIPOS>BOND
     1     1    12    1
     2     1    27    1
     3     2    11    2
     4     3    17    2
     5     4    27    2
     6     7     5    1
     7     5    11   am
     8     5    38    1
     9     8     6    1
    10     6    17   am
    11     6    43    1
    12     7     9    1
    13     7    12    1
    14     7    34    1
    15     8    10    1
    16     8    11    1
    17     8    35    1
    18     9    13    1
    19     9    36    1
    20     9    37    1
    21    10    14    1
    22    10    39    1
    23    10    40    1
    24    12    41    1
    25    12    42    1
    26    13    15   ar
    27    13    16   ar
    28    14    18   ar
    29    14    19   ar
    30    15    20   ar
    31    15    44    1
    32    16    21   ar
    33    16    45    1
    34    17    22    1
    35    18    23   ar
    36    18    46    1
    37    19    24   ar
    38    19    47    1
    39    20    25   ar
    40    20    48    1
    41    21    25   ar
    42    21    49    1
    43    22    28   ar
    44    22    29   ar
    45    23    26   ar
    46    23    50    1
    47    24    26   ar
    48    24    51    1
    49    25    52    1
    50    26    53    1
    51    27    30    1
    52    28    31   ar
    53    28    54    1
    54    29    32   ar
    55    29    55    1
    56    30    56    1
    57    30    57    1
    58    30    58    1
    59    31    33   ar
    60    31    59    1
    61    32    33   ar
    62    32    60    1
    63    33    61    1
