@<TRIPOS>MOLECULE
IMPHY001037
 95 100 0 0 0
SMALL
GASTEIGER

@<TRIPOS>ATOM
      1 O           6.8671   -2.7787    0.0000 O.3     1  UNL1       -0.3366
      2 O           7.7331   -0.2787    0.0000 O.3     1  UNL1       -0.3313
      3 O           5.1350   -2.7787    0.0000 O.3     1  UNL1       -0.3405
      4 O           8.5991   -1.7787    0.0000 O.3     1  UNL1       -0.4514
      5 O           5.1350   -1.7787    0.0000 O.3     1  UNL1       -0.3863
      6 O           5.1350    0.2213    0.0000 O.3     1  UNL1       -0.3865
      7 O           6.8671   -4.7787    0.0000 O.3     1  UNL1       -0.3841
      8 O           5.1350   -5.7787    0.0000 O.3     1  UNL1       -0.3864
      9 O           3.4030   -4.7787    0.0000 O.3     1  UNL1       -0.3865
     10 O          10.2920    3.2627    0.0000 O.3     1  UNL1       -0.3313
     11 O           6.0010    1.7213    0.0000 O.3     1  UNL1       -0.3924
     12 O           9.4434    1.7528    0.0000 O.3     1  UNL1       -0.4598
     13 O           2.5369   -3.2787    0.0000 O.3     1  UNL1       -0.3924
     14 O           7.6767    4.7325    0.0000 O.3     1  UNL1       -0.3864
     15 O           9.3971    5.7525    0.0000 O.3     1  UNL1       -0.3865
     16 O           7.6999    2.7327    0.0000 O.3     1  UNL1       -0.3829
     17 O          11.1972   -1.2787    0.0000 O.2     1  UNL1       -0.1997
     18 O          11.1290    5.7725    0.0000 O.3     1  UNL1       -0.3924
     19 O          12.9832    1.7664    0.0000 O.3     1  UNL1       -0.5063
     20 O          12.0632   -4.7787    0.0000 O.3     1  UNL1       -0.5033
     21 O          10.3312   -5.7787    0.0000 O.3     1  UNL1       -0.5033
     22 C           6.8671   -1.7787    0.0000 C.3     1  UNL1        0.1519
     23 C           6.0010   -1.2787    0.0000 C.3     1  UNL1        0.1155
     24 C           6.0010   -0.2787    0.0000 C.3     1  UNL1        0.1120
     25 C           6.0010   -3.2787    0.0000 C.3     1  UNL1        0.1886
     26 C           7.7331   -1.2787    0.0000 C.3     1  UNL1        0.2316
     27 C           6.0010   -4.2787    0.0000 C.3     1  UNL1        0.1341
     28 C           6.8671    0.2213    0.0000 C.3     1  UNL1        0.1140
     29 C           5.1350   -4.7787    0.0000 C.3     1  UNL1        0.1141
     30 C           4.2690   -4.2787    0.0000 C.3     1  UNL1        0.1119
     31 C           4.2690   -3.2787    0.0000 C.3     1  UNL1        0.1130
     32 C           6.8671    1.2213    0.0000 C.3     1  UNL1        0.0731
     33 C           3.4030   -2.7787    0.0000 C.3     1  UNL1        0.0730
     34 C           8.5485    4.2426    0.0000 C.3     1  UNL1        0.1152
     35 C           9.4087    4.7526    0.0000 C.3     1  UNL1        0.1120
     36 C           8.5600    3.2426    0.0000 C.3     1  UNL1        0.1454
     37 C          10.2804    4.2626    0.0000 C.3     1  UNL1        0.1140
     38 C           9.4318    2.7527    0.0000 C.3     1  UNL1        0.2308
     39 C           9.4651   -1.2787    0.0000 C.ar    1  UNL1        0.2288
     40 C          11.1406    4.7726    0.0000 C.3     1  UNL1        0.0731
     41 C           9.4651   -0.2787    0.0000 C.ar    1  UNL1        0.0093
     42 C          10.3312    0.2213    0.0000 C.ar    1  UNL1        0.1245
     43 C          10.3312   -1.7787    0.0000 C.ar    1  UNL1        0.4046
     44 C          10.3151    1.2628    0.0000 C.ar    1  UNL1        0.1437
     45 C          11.1972   -0.2787    0.0000 C.ar    1  UNL1        0.3708
     46 C          10.3312   -2.7787    0.0000 C.ar    1  UNL1        0.0865
     47 C          11.2131    1.7906    0.0000 C.ar    1  UNL1        0.0229
     48 C          12.1072    0.2281    0.0000 C.ar    1  UNL1        0.0847
     49 C          12.1152    1.2697    0.0000 C.ar    1  UNL1        0.1293
     50 C          11.1972   -3.2787    0.0000 C.ar    1  UNL1       -0.0003
     51 C           9.4651   -3.2787    0.0000 C.ar    1  UNL1       -0.0418
     52 C          11.1972   -4.2787    0.0000 C.ar    1  UNL1        0.1591
     53 C           9.4651   -4.2787    0.0000 C.ar    1  UNL1       -0.0157
     54 C          10.3312   -4.7787    0.0000 C.ar    1  UNL1        0.1583
     55 H           7.4040   -2.0887    0.0000 H       1  UNL1        0.0687
     56 H           6.0010   -1.8987    0.0000 H       1  UNL1        0.0648
     57 H           6.0010    0.3413    0.0000 H       1  UNL1        0.0647
     58 H           6.0010   -2.6587    0.0000 H       1  UNL1        0.0938
     59 H           8.2700   -0.9687    0.0000 H       1  UNL1        0.1084
     60 H           6.0010   -4.8987    0.0000 H       1  UNL1        0.0671
     61 H           7.4040    0.5313    0.0000 H       1  UNL1        0.0647
     62 H           4.5981   -5.0887    0.0000 H       1  UNL1        0.0648
     63 H           3.7320   -3.9687    0.0000 H       1  UNL1        0.0647
     64 H           4.2690   -2.6587    0.0000 H       1  UNL1        0.0647
     65 H           7.4776    1.1136    0.0000 H       1  UNL1        0.0584
     66 H           7.0791    1.8039    0.0000 H       1  UNL1        0.0584
     67 H           3.8015   -2.3038    0.0000 H       1  UNL1        0.0584
     68 H           3.0044   -2.3038    0.0000 H       1  UNL1        0.0584
     69 H           8.0152    3.9264    0.0000 H       1  UNL1        0.0648
     70 H           8.8682    5.0563    0.0000 H       1  UNL1        0.0647
     71 H           4.5981   -1.4687    0.0000 H       1  UNL1        0.2100
     72 H           9.0934    3.5588    0.0000 H       1  UNL1        0.0683
     73 H          10.8209    3.9588    0.0000 H       1  UNL1        0.0647
     74 H           5.1350    0.8413    0.0000 H       1  UNL1        0.2100
     75 H           8.8985    2.4365    0.0000 H       1  UNL1        0.1084
     76 H           6.8671   -5.3987    0.0000 H       1  UNL1        0.2101
     77 H           4.5981   -6.0887    0.0000 H       1  UNL1        0.2100
     78 H           3.4030   -5.3987    0.0000 H       1  UNL1        0.2100
     79 H          11.3594    4.1925    0.0000 H       1  UNL1        0.0584
     80 H          11.7499    4.8873    0.0000 H       1  UNL1        0.0584
     81 H           6.0010    2.3413    0.0000 H       1  UNL1        0.2095
     82 H           8.9282    0.0313    0.0000 H       1  UNL1        0.0667
     83 H           2.0000   -2.9687    0.0000 H       1  UNL1        0.2095
     84 H           7.6696    5.3525    0.0000 H       1  UNL1        0.2100
     85 H           8.8566    6.0563    0.0000 H       1  UNL1        0.2100
     86 H           7.1594    3.0364    0.0000 H       1  UNL1        0.2102
     87 H          11.2108    2.4106    0.0000 H       1  UNL1        0.0691
     88 H          12.6405   -0.0880    0.0000 H       1  UNL1        0.0749
     89 H          11.6624    6.0887    0.0000 H       1  UNL1        0.2095
     90 H          11.7341   -2.9687    0.0000 H       1  UNL1        0.0664
     91 H           8.9282   -2.9687    0.0000 H       1  UNL1        0.0628
     92 H           8.9282   -4.5887    0.0000 H       1  UNL1        0.0655
     93 H          13.5189    1.4543    0.0000 H       1  UNL1        0.2921
     94 H          12.6002   -4.4687    0.0000 H       1  UNL1        0.2923
     95 H          10.8681   -6.0887    0.0000 H       1  UNL1        0.2923
@<TRIPOS>UNITY_ATOM_ATTR
17 1
charge 1
@<TRIPOS>BOND
     1     1    22    1
     2    25     1    1
     3     2    26    1
     4     2    28    1
     5     3    25    1
     6     3    31    1
     7    26     4    1
     8     4    39    1
     9     5    23    1
    10     5    71    1
    11    24     6    1
    12     6    74    1
    13    27     7    1
    14     7    76    1
    15     8    29    1
    16     8    77    1
    17    30     9    1
    18     9    78    1
    19    10    37    1
    20    10    38    1
    21    11    32    1
    22    11    81    1
    23    38    12    1
    24    12    44    1
    25    13    33    1
    26    13    83    1
    27    34    14    1
    28    14    84    1
    29    35    15    1
    30    15    85    1
    31    16    36    1
    32    16    86    1
    33    17    43   ar
    34    17    45   ar
    35    18    40    1
    36    18    89    1
    37    19    49    1
    38    19    93    1
    39    20    52    1
    40    20    94    1
    41    21    54    1
    42    21    95    1
    43    22    23    1
    44    22    26    1
    45    22    55    1
    46    23    24    1
    47    23    56    1
    48    24    28    1
    49    24    57    1
    50    25    27    1
    51    25    58    1
    52    26    59    1
    53    27    29    1
    54    27    60    1
    55    28    32    1
    56    28    61    1
    57    29    30    1
    58    29    62    1
    59    30    31    1
    60    30    63    1
    61    31    33    1
    62    31    64    1
    63    32    65    1
    64    32    66    1
    65    33    67    1
    66    33    68    1
    67    34    35    1
    68    34    36    1
    69    34    69    1
    70    35    37    1
    71    35    70    1
    72    36    38    1
    73    36    72    1
    74    37    40    1
    75    37    73    1
    76    38    75    1
    77    39    41   ar
    78    39    43   ar
    79    40    79    1
    80    40    80    1
    81    41    42   ar
    82    41    82    1
    83    42    44   ar
    84    42    45   ar
    85    43    46    1
    86    44    47   ar
    87    45    48   ar
    88    46    50   ar
    89    46    51   ar
    90    47    49   ar
    91    47    87    1
    92    48    49   ar
    93    48    88    1
    94    50    52   ar
    95    50    90    1
    96    51    53   ar
    97    51    91    1
    98    52    54   ar
    99    53    54   ar
   100    53    92    1
