@<TRIPOS>MOLECULE
IMPHY002073
 33 35 0 0 0
SMALL
GASTEIGER

@<TRIPOS>ATOM
      1 O           6.0682   -0.6154    0.0000 O.3     1  UNL1       -0.4802
      2 O           7.8003    1.3846    0.0000 O.3     1  UNL1       -0.3798
      3 O           6.0682    2.3846    0.0000 O.2     1  UNL1       -0.2889
      4 O           4.3198    2.4192    0.0000 O.3     1  UNL1       -0.5058
      5 O           2.5381   -0.6395    0.0000 O.3     1  UNL1       -0.5065
      6 O          10.3984   -2.1154    0.0000 O.3     1  UNL1       -0.5068
      7 C           6.9343   -0.1154    0.0000 C.3     1  UNL1        0.1581
      8 C           6.9343    0.8846    0.0000 C.3     1  UNL1        0.1585
      9 C           7.8003   -0.6154    0.0000 C.ar    1  UNL1       -0.0042
     10 C           6.0682    1.3846    0.0000 C.2     1  UNL1        0.2024
     11 C           5.2022    0.8846    0.0000 C.ar    1  UNL1        0.1033
     12 C           5.2022   -0.1154    0.0000 C.ar    1  UNL1        0.1391
     13 C           4.3083    1.4193    0.0000 C.ar    1  UNL1        0.1344
     14 C           4.3083   -0.6501    0.0000 C.ar    1  UNL1        0.0225
     15 C           7.8003   -1.6154    0.0000 C.ar    1  UNL1       -0.0515
     16 C           8.6663   -0.1154    0.0000 C.ar    1  UNL1       -0.0515
     17 C           3.4022    0.9054    0.0000 C.ar    1  UNL1        0.0222
     18 C           3.4022   -0.1362    0.0000 C.ar    1  UNL1        0.1238
     19 C           8.6663   -2.1154    0.0000 C.ar    1  UNL1       -0.0198
     20 C           9.5323   -0.6154    0.0000 C.ar    1  UNL1       -0.0198
     21 C           9.5323   -1.6154    0.0000 C.ar    1  UNL1        0.1169
     22 H           6.9343   -0.7354    0.0000 H       1  UNL1        0.0815
     23 H           6.9343    1.5046    0.0000 H       1  UNL1        0.0718
     24 H           4.3154   -1.2700    0.0000 H       1  UNL1        0.0691
     25 H           7.2634   -1.9254    0.0000 H       1  UNL1        0.0623
     26 H           8.6663    0.5046    0.0000 H       1  UNL1        0.0623
     27 H           7.8003    2.0046    0.0000 H       1  UNL1        0.2105
     28 H           2.8665    1.2175    0.0000 H       1  UNL1        0.0691
     29 H           8.6663   -2.7354    0.0000 H       1  UNL1        0.0654
     30 H          10.0693   -0.3054    0.0000 H       1  UNL1        0.0654
     31 H           3.7865    2.7354    0.0000 H       1  UNL1        0.2922
     32 H           2.0000   -0.3316    0.0000 H       1  UNL1        0.2921
     33 H          10.3984   -2.7354    0.0000 H       1  UNL1        0.2921
@<TRIPOS>BOND
     1     1     7    1
     2     1    12    1
     3     8     2    1
     4     2    27    1
     5     3    10    2
     6     4    13    1
     7     4    31    1
     8     5    18    1
     9     5    32    1
    10     6    21    1
    11     6    33    1
    12     7     8    1
    13     7     9    1
    14     7    22    1
    15     8    10    1
    16     8    23    1
    17     9    15   ar
    18     9    16   ar
    19    10    11    1
    20    11    12   ar
    21    11    13   ar
    22    12    14   ar
    23    13    17   ar
    24    14    18   ar
    25    14    24    1
    26    15    19   ar
    27    15    25    1
    28    16    20   ar
    29    16    26    1
    30    17    18   ar
    31    17    28    1
    32    19    21   ar
    33    19    29    1
    34    20    21   ar
    35    20    30    1
