@<TRIPOS>MOLECULE
IMPHY008197
 59 62 0 0 0
SMALL
GASTEIGER

@<TRIPOS>ATOM
      1 O           6.8671   -0.9715    0.0000 O.3     1  UNL1       -0.3421
      2 O           6.2311    3.2039    0.0000 O.3     1  UNL1       -0.4530
      3 O           5.1350   -0.9715    0.0000 O.3     1  UNL1       -0.3405
      4 O           6.8671   -2.9715    0.0000 O.3     1  UNL1       -0.3841
      5 O           5.1350   -3.9715    0.0000 O.3     1  UNL1       -0.3864
      6 O           3.4030   -2.9715    0.0000 O.3     1  UNL1       -0.3865
      7 O           4.8189    4.2815    0.0000 O.2     1  UNL1       -0.2453
      8 O           2.5369   -1.4715    0.0000 O.3     1  UNL1       -0.3924
      9 C           7.4906    0.8103    0.0000 C.3     1  UNL1        0.0016
     10 C           7.2680    1.7853    0.0000 C.3     1  UNL1        0.0266
     11 C           6.8671    0.0285    0.0000 C.3     1  UNL1        0.0739
     12 C           6.3671    2.2191    0.0000 C.3     1  UNL1        0.1320
     13 C           8.4809    0.7238    0.0000 C.3     1  UNL1       -0.0284
     14 C           5.8671    0.0285    0.0000 C.3     1  UNL1       -0.0198
     15 C           8.1227    2.2929    0.0000 C.2     1  UNL1       -0.0693
     16 C           5.4661    1.7853    0.0000 C.2     1  UNL1       -0.0192
     17 C           5.2436    0.8103    0.0000 C.3     1  UNL1       -0.0249
     18 C           8.8708    1.6382    0.0000 C.2     1  UNL1       -0.0843
     19 C           7.6489   -0.5950    0.0000 C.3     1  UNL1       -0.0354
     20 C           6.0010   -1.4715    0.0000 C.3     1  UNL1        0.1885
     21 C           4.7810    2.5056    0.0000 C.2     1  UNL1        0.0362
     22 C           8.2141    3.2887    0.0000 C.3     1  UNL1       -0.0434
     23 C           6.0010   -2.4715    0.0000 C.3     1  UNL1        0.1341
     24 C           5.2528    3.3805    0.0000 C.2     1  UNL1        0.3355
     25 C           5.1350   -2.9715    0.0000 C.3     1  UNL1        0.1141
     26 C           4.2690   -2.4715    0.0000 C.3     1  UNL1        0.1119
     27 C           4.2690   -1.4715    0.0000 C.3     1  UNL1        0.1130
     28 C           3.7898    2.3730    0.0000 C.3     1  UNL1       -0.0329
     29 C           3.4030   -0.9715    0.0000 C.3     1  UNL1        0.0730
     30 H           7.8256    0.0292    0.0000 H       1  UNL1        0.0338
     31 H           7.2310    2.6344    0.0000 H       1  UNL1        0.0388
     32 H           7.0541    2.7196    0.0000 H       1  UNL1        0.0788
     33 H           8.3623    0.1152    0.0000 H       1  UNL1        0.0311
     34 H           9.0736    0.5419    0.0000 H       1  UNL1        0.0311
     35 H           5.3085   -0.2405    0.0000 H       1  UNL1        0.0296
     36 H           6.0050   -0.5760    0.0000 H       1  UNL1        0.0296
     37 H           4.6850    1.0793    0.0000 H       1  UNL1        0.0312
     38 H           4.8570    0.3256    0.0000 H       1  UNL1        0.0312
     39 H           9.4752    1.7762    0.0000 H       1  UNL1        0.0572
     40 H           7.2623   -1.0797    0.0000 H       1  UNL1        0.0257
     41 H           8.1336   -0.9816    0.0000 H       1  UNL1        0.0257
     42 H           8.0355   -0.1103    0.0000 H       1  UNL1        0.0257
     43 H           6.5380   -1.7815    0.0000 H       1  UNL1        0.0938
     44 H           8.8315    3.2321    0.0000 H       1  UNL1        0.0274
     45 H           8.2707    3.9061    0.0000 H       1  UNL1        0.0274
     46 H           7.5967    3.3454    0.0000 H       1  UNL1        0.0274
     47 H           6.0010   -3.0915    0.0000 H       1  UNL1        0.0671
     48 H           4.5981   -3.2815    0.0000 H       1  UNL1        0.0648
     49 H           3.7320   -2.1615    0.0000 H       1  UNL1        0.0647
     50 H           4.2690   -0.8515    0.0000 H       1  UNL1        0.0647
     51 H           3.7076    2.9876    0.0000 H       1  UNL1        0.0280
     52 H           3.1753    2.2909    0.0000 H       1  UNL1        0.0280
     53 H           3.8720    1.7585    0.0000 H       1  UNL1        0.0280
     54 H           3.8015   -0.4966    0.0000 H       1  UNL1        0.0584
     55 H           3.0044   -0.4966    0.0000 H       1  UNL1        0.0584
     56 H           6.8671   -3.5915    0.0000 H       1  UNL1        0.2101
     57 H           4.5981   -4.2815    0.0000 H       1  UNL1        0.2100
     58 H           3.4030   -3.5915    0.0000 H       1  UNL1        0.2100
     59 H           2.0000   -1.1615    0.0000 H       1  UNL1        0.2095
@<TRIPOS>BOND
     1    11     1    1
     2    20     1    1
     3     2    12    1
     4     2    24    1
     5     3    20    1
     6     3    27    1
     7    23     4    1
     8     4    56    1
     9    25     5    1
    10     5    57    1
    11    26     6    1
    12     6    58    1
    13     7    24    2
    14     8    29    1
    15     8    59    1
    16     9    10    1
    17     9    11    1
    18     9    13    1
    19     9    30    1
    20    10    12    1
    21    10    15    1
    22    10    31    1
    23    11    14    1
    24    11    19    1
    25    12    16    1
    26    12    32    1
    27    13    18    1
    28    13    33    1
    29    13    34    1
    30    14    17    1
    31    14    35    1
    32    14    36    1
    33    15    18    2
    34    15    22    1
    35    16    17    1
    36    16    21    2
    37    17    37    1
    38    17    38    1
    39    18    39    1
    40    19    40    1
    41    19    41    1
    42    19    42    1
    43    20    23    1
    44    20    43    1
    45    21    24    1
    46    21    28    1
    47    22    44    1
    48    22    45    1
    49    22    46    1
    50    23    25    1
    51    23    47    1
    52    25    26    1
    53    25    48    1
    54    26    27    1
    55    26    49    1
    56    27    29    1
    57    27    50    1
    58    28    51    1
    59    28    52    1
    60    28    53    1
    61    29    54    1
    62    29    55    1
