@<TRIPOS>MOLECULE
IMPHY013753
 25 25 0 0 0
SMALL
GASTEIGER

@<TRIPOS>ATOM
      1 O           2.8660   -2.5000    0.0000 O.3     1  UNL1       -0.4951
      2 C           2.8660    1.5000    0.0000 C.3     1  UNL1       -0.0279
      3 C           2.8660    0.5000    0.0000 C.ar    1  UNL1       -0.0471
      4 C           3.7320    2.0000    0.0000 C.3     1  UNL1       -0.0519
      5 C           3.7320   -0.0000    0.0000 C.ar    1  UNL1       -0.0551
      6 C           2.0000    0.0000    0.0000 C.ar    1  UNL1       -0.0551
      7 C           3.7320    3.0000    0.0000 C.3     1  UNL1       -0.0650
      8 C           3.7320   -1.0000    0.0000 C.ar    1  UNL1       -0.0197
      9 C           2.0000   -1.0000    0.0000 C.ar    1  UNL1       -0.0197
     10 C           2.8660   -1.5000    0.0000 C.ar    1  UNL1        0.1201
     11 C           2.0000   -3.0000    0.0000 C.3     1  UNL1        0.0788
     12 H           2.6540    2.0826    0.0000 H       1  UNL1        0.0313
     13 H           2.2554    1.3923    0.0000 H       1  UNL1        0.0313
     14 H           3.9441    1.4174    0.0000 H       1  UNL1        0.0266
     15 H           4.3426    2.1077    0.0000 H       1  UNL1        0.0266
     16 H           4.2690    0.3100    0.0000 H       1  UNL1        0.0621
     17 H           1.4631    0.3100    0.0000 H       1  UNL1        0.0621
     18 H           4.3520    3.0000    0.0000 H       1  UNL1        0.0230
     19 H           3.7320    3.6200    0.0000 H       1  UNL1        0.0230
     20 H           3.1120    3.0000    0.0000 H       1  UNL1        0.0230
     21 H           4.2690   -1.3100    0.0000 H       1  UNL1        0.0654
     22 H           1.4631   -1.3100    0.0000 H       1  UNL1        0.0654
     23 H           1.6900   -2.4631    0.0000 H       1  UNL1        0.0660
     24 H           1.4631   -3.3100    0.0000 H       1  UNL1        0.0660
     25 H           2.3100   -3.5369    0.0000 H       1  UNL1        0.0660
@<TRIPOS>BOND
     1     1    10    1
     2     1    11    1
     3     2     3    1
     4     2     4    1
     5     2    12    1
     6     2    13    1
     7     3     5   ar
     8     3     6   ar
     9     4     7    1
    10     4    14    1
    11     4    15    1
    12     5     8   ar
    13     5    16    1
    14     6     9   ar
    15     6    17    1
    16     7    18    1
    17     7    19    1
    18     7    20    1
    19     8    10   ar
    20     8    21    1
    21     9    10   ar
    22     9    22    1
    23    11    23    1
    24    11    24    1
    25    11    25    1
