@<TRIPOS>MOLECULE
IMPHY004179
 134 142 0 0 0
SMALL
GASTEIGER

@<TRIPOS>ATOM
      1 O           7.7331   -1.9895    0.0000 O.3     1  UNL1       -0.3451
      2 O           6.0010   -1.9895    0.0000 O.3     1  UNL1       -0.3405
      3 O           7.7331   -3.9895    0.0000 O.3     1  UNL1       -0.3378
      4 O           6.0010   -4.9895    0.0000 O.3     1  UNL1       -0.3400
      5 O           4.2690   -3.9895    0.0000 O.3     1  UNL1       -0.3865
      6 O           8.5991   -2.4895    0.0000 O.3     1  UNL1       -0.3431
      7 O           4.2690   -0.9895    0.0000 O.3     1  UNL1       -0.3924
      8 O           4.2690   -4.9895    0.0000 O.3     1  UNL1       -0.3405
      9 O           9.4651   -4.9895    0.0000 O.3     1  UNL1       -0.3841
     10 O           6.0010   -6.9895    0.0000 O.3     1  UNL1       -0.3841
     11 O          11.1972   -3.9895    0.0000 O.3     1  UNL1       -0.3864
     12 O          11.1972   -1.9895    0.0000 O.3     1  UNL1       -0.3866
     13 O           4.2690   -7.9895    0.0000 O.3     1  UNL1       -0.3864
     14 O           2.5369   -6.9895    0.0000 O.3     1  UNL1       -0.3865
     15 O           2.5369   -3.9895    0.0000 O.3     1  UNL1       -0.3924
     16 N           9.1562    6.2546    0.0000 N.3     1  UNL1       -0.2956
     17 C           7.7624    4.2074    0.0000 C.3     1  UNL1       -0.0244
     18 C           7.9678    5.1800    0.0000 C.3     1  UNL1       -0.0157
     19 C           8.6303    3.7107    0.0000 C.3     1  UNL1       -0.0305
     20 C           8.9561    5.2869    0.0000 C.3     1  UNL1        0.0146
     21 C           8.6342    2.7107    0.0000 C.3     1  UNL1       -0.0306
     22 C           9.3647    4.3806    0.0000 C.3     1  UNL1       -0.0334
     23 C           7.5655    6.0826    0.0000 C.3     1  UNL1       -0.0235
     24 C           7.7701    2.2074    0.0000 C.3     1  UNL1       -0.0285
     25 C           6.8983    3.7041    0.0000 C.3     1  UNL1       -0.0468
     26 C           8.2985    6.7454    0.0000 C.3     1  UNL1        0.0136
     27 C           6.9021    2.7041    0.0000 C.3     1  UNL1       -0.0486
     28 C           7.7580    1.1658    0.0000 C.3     1  UNL1       -0.0078
     29 C           6.8944    4.7040    0.0000 C.3     1  UNL1       -0.0590
     30 C           9.5461    2.2074    0.0000 C.3     1  UNL1       -0.0311
     31 C           8.2786    7.7745    0.0000 C.3     1  UNL1       -0.0368
     32 C          10.0535    6.7589    0.0000 C.3     1  UNL1        0.0020
     33 C           6.5871    6.2893    0.0000 C.3     1  UNL1       -0.0607
     34 C           8.6581    0.6416    0.0000 C.2     1  UNL1       -0.0648
     35 C          10.0575    7.7882    0.0000 C.3     1  UNL1       -0.0310
     36 C           6.8081    0.6416    0.0000 C.3     1  UNL1       -0.0413
     37 C           9.1641    8.2995    0.0000 C.3     1  UNL1       -0.0479
     38 C           9.5581    1.1658    0.0000 C.2     1  UNL1       -0.0839
     39 C           6.8939    1.6692    0.0000 C.3     1  UNL1       -0.0556
     40 C           8.6706   -0.4434    0.0000 C.3     1  UNL1       -0.0047
     41 C           6.7956   -0.4434    0.0000 C.3     1  UNL1       -0.0254
     42 C           7.7331   -0.9895    0.0000 C.3     1  UNL1        0.0655
     43 C          10.9235    8.2882    0.0000 C.3     1  UNL1       -0.0613
     44 C           6.8671   -2.4895    0.0000 C.3     1  UNL1        0.1886
     45 C           6.8671   -3.4895    0.0000 C.3     1  UNL1        0.1410
     46 C           6.0010   -3.9895    0.0000 C.3     1  UNL1        0.1209
     47 C           5.1350   -2.4895    0.0000 C.3     1  UNL1        0.1130
     48 C           5.1350   -3.4895    0.0000 C.3     1  UNL1        0.1123
     49 C           4.2690   -1.9895    0.0000 C.3     1  UNL1        0.0730
     50 C           8.5991   -3.4895    0.0000 C.3     1  UNL1        0.1884
     51 C           5.1350   -5.4895    0.0000 C.3     1  UNL1        0.1884
     52 C           9.4651   -3.9895    0.0000 C.3     1  UNL1        0.1341
     53 C           5.1350   -6.4895    0.0000 C.3     1  UNL1        0.1341
     54 C          10.3312   -3.4895    0.0000 C.3     1  UNL1        0.1140
     55 C           9.4651   -1.9895    0.0000 C.3     1  UNL1        0.0873
     56 C          10.3312   -2.4895    0.0000 C.3     1  UNL1        0.1095
     57 C           4.2690   -6.9895    0.0000 C.3     1  UNL1        0.1141
     58 C           3.4030   -5.4895    0.0000 C.3     1  UNL1        0.1130
     59 C           3.4030   -6.4895    0.0000 C.3     1  UNL1        0.1119
     60 C           9.4651   -0.9895    0.0000 C.3     1  UNL1       -0.0361
     61 C           2.5369   -4.9895    0.0000 C.3     1  UNL1        0.0730
     62 H           7.1225    5.0905    0.0000 H       1  UNL1        0.0324
     63 H           9.4086    3.3690    0.0000 H       1  UNL1        0.0309
     64 H           9.8010    5.3801    0.0000 H       1  UNL1        0.0466
     65 H           9.3653    3.1442    0.0000 H       1  UNL1        0.0309
     66 H           9.7321    3.8812    0.0000 H       1  UNL1        0.0283
     67 H           9.9000    4.6935    0.0000 H       1  UNL1        0.0283
     68 H           7.4040    6.6812    0.0000 H       1  UNL1        0.0317
     69 H           8.5045    1.7796    0.0000 H       1  UNL1        0.0312
     70 H           6.6840    4.2858    0.0000 H       1  UNL1        0.0271
     71 H           6.2881    3.5940    0.0000 H       1  UNL1        0.0271
     72 H           7.5183    7.0828    0.0000 H       1  UNL1        0.0465
     73 H           6.2911    2.8094    0.0000 H       1  UNL1        0.0268
     74 H           6.6923    2.1206    0.0000 H       1  UNL1        0.0268
     75 H           7.2023    5.2422    0.0000 H       1  UNL1        0.0235
     76 H           6.3563    5.0120    0.0000 H       1  UNL1        0.0235
     77 H           6.5865    4.1659    0.0000 H       1  UNL1        0.0235
     78 H          10.1581    2.1084    0.0000 H       1  UNL1        0.0310
     79 H           9.7484    2.7935    0.0000 H       1  UNL1        0.0310
     80 H           8.0584    8.3541    0.0000 H       1  UNL1        0.0280
     81 H           7.6700    7.6567    0.0000 H       1  UNL1        0.0280
     82 H          10.2603    6.1744    0.0000 H       1  UNL1        0.0429
     83 H          10.6648    6.8627    0.0000 H       1  UNL1        0.0429
     84 H           6.7152    6.8959    0.0000 H       1  UNL1        0.0233
     85 H           5.9805    6.4174    0.0000 H       1  UNL1        0.0233
     86 H           6.4590    5.6827    0.0000 H       1  UNL1        0.0233
     87 H          10.5938    7.4772    0.0000 H       1  UNL1        0.0310
     88 H           6.6058    1.2276    0.0000 H       1  UNL1        0.0274
     89 H           6.1961    0.5425    0.0000 H       1  UNL1        0.0274
     90 H           9.5595    8.7770    0.0000 H       1  UNL1        0.0269
     91 H           8.7613    8.7708    0.0000 H       1  UNL1        0.0269
     92 H          10.0975    0.8600    0.0000 H       1  UNL1        0.0572
     93 H           7.2060    2.2049    0.0000 H       1  UNL1        0.0238
     94 H           6.3582    1.9812    0.0000 H       1  UNL1        0.0238
     95 H           6.5818    1.1334    0.0000 H       1  UNL1        0.0238
     96 H           8.8864   -1.0246    0.0000 H       1  UNL1        0.0335
     97 H           9.2802   -0.3302    0.0000 H       1  UNL1        0.0335
     98 H           6.1860   -0.3302    0.0000 H       1  UNL1        0.0290
     99 H           6.5798   -1.0246    0.0000 H       1  UNL1        0.0290
    100 H           8.2706   -1.2984    0.0000 H       1  UNL1        0.0600
    101 H          11.2335    7.7513    0.0000 H       1  UNL1        0.0233
    102 H          11.4604    8.5982    0.0000 H       1  UNL1        0.0233
    103 H          10.6135    8.8252    0.0000 H       1  UNL1        0.0233
    104 H           7.4040   -2.7995    0.0000 H       1  UNL1        0.0938
    105 H           6.8671   -4.1095    0.0000 H       1  UNL1        0.0675
    106 H           5.4641   -4.2995    0.0000 H       1  UNL1        0.0651
    107 H           5.1350   -1.8695    0.0000 H       1  UNL1        0.0647
    108 H           4.5981   -3.1795    0.0000 H       1  UNL1        0.0647
    109 H           3.6584   -1.8818    0.0000 H       1  UNL1        0.0584
    110 H           4.0569   -2.5721    0.0000 H       1  UNL1        0.0584
    111 H           8.5991   -4.1095    0.0000 H       1  UNL1        0.0938
    112 H           3.7320   -3.6795    0.0000 H       1  UNL1        0.2100
    113 H           5.1350   -4.8695    0.0000 H       1  UNL1        0.0938
    114 H          10.0021   -4.2995    0.0000 H       1  UNL1        0.0671
    115 H           3.7320   -0.6795    0.0000 H       1  UNL1        0.2095
    116 H           5.1350   -7.1095    0.0000 H       1  UNL1        0.0671
    117 H          10.8681   -3.1795    0.0000 H       1  UNL1        0.0648
    118 H           8.9282   -1.6795    0.0000 H       1  UNL1        0.0621
    119 H          10.3312   -1.8695    0.0000 H       1  UNL1        0.0646
    120 H           3.7320   -7.2995    0.0000 H       1  UNL1        0.0648
    121 H           3.4030   -4.8695    0.0000 H       1  UNL1        0.0647
    122 H           2.8660   -6.1795    0.0000 H       1  UNL1        0.0647
    123 H          10.0021   -5.2995    0.0000 H       1  UNL1        0.2101
    124 H          10.0851   -0.9895    0.0000 H       1  UNL1        0.0255
    125 H           9.4651   -0.3695    0.0000 H       1  UNL1        0.0255
    126 H           8.8451   -0.9895    0.0000 H       1  UNL1        0.0255
    127 H           6.0010   -7.6095    0.0000 H       1  UNL1        0.2101
    128 H          11.7341   -3.6795    0.0000 H       1  UNL1        0.2100
    129 H           1.9264   -4.8818    0.0000 H       1  UNL1        0.0584
    130 H           2.3249   -5.5721    0.0000 H       1  UNL1        0.0584
    131 H          11.1972   -1.3695    0.0000 H       1  UNL1        0.2100
    132 H           3.7320   -8.2995    0.0000 H       1  UNL1        0.2100
    133 H           2.0000   -6.6795    0.0000 H       1  UNL1        0.2100
    134 H           2.0000   -3.6795    0.0000 H       1  UNL1        0.2095
@<TRIPOS>BOND
     1    42     1    1
     2    44     1    1
     3     2    44    1
     4     2    47    1
     5    45     3    1
     6    50     3    1
     7    46     4    1
     8    51     4    1
     9    48     5    1
    10     5   112    1
    11     6    50    1
    12     6    55    1
    13     7    49    1
    14     7   115    1
    15     8    51    1
    16     8    58    1
    17    52     9    1
    18     9   123    1
    19    53    10    1
    20    10   127    1
    21    54    11    1
    22    11   128    1
    23    56    12    1
    24    12   131    1
    25    57    13    1
    26    13   132    1
    27    59    14    1
    28    14   133    1
    29    15    61    1
    30    15   134    1
    31    16    20    1
    32    16    26    1
    33    16    32    1
    34    17    18    1
    35    17    19    1
    36    17    25    1
    37    17    29    1
    38    18    20    1
    39    18    23    1
    40    18    62    1
    41    19    21    1
    42    19    22    1
    43    19    63    1
    44    20    22    1
    45    20    64    1
    46    21    24    1
    47    21    30    1
    48    21    65    1
    49    22    66    1
    50    22    67    1
    51    23    26    1
    52    23    33    1
    53    23    68    1
    54    24    27    1
    55    24    28    1
    56    24    69    1
    57    25    27    1
    58    25    70    1
    59    25    71    1
    60    26    31    1
    61    26    72    1
    62    27    73    1
    63    27    74    1
    64    28    34    1
    65    28    36    1
    66    28    39    1
    67    29    75    1
    68    29    76    1
    69    29    77    1
    70    30    38    1
    71    30    78    1
    72    30    79    1
    73    31    37    1
    74    31    80    1
    75    31    81    1
    76    32    35    1
    77    32    82    1
    78    32    83    1
    79    33    84    1
    80    33    85    1
    81    33    86    1
    82    34    38    2
    83    34    40    1
    84    35    37    1
    85    35    43    1
    86    35    87    1
    87    36    41    1
    88    36    88    1
    89    36    89    1
    90    37    90    1
    91    37    91    1
    92    38    92    1
    93    39    93    1
    94    39    94    1
    95    39    95    1
    96    40    42    1
    97    40    96    1
    98    40    97    1
    99    41    42    1
   100    41    98    1
   101    41    99    1
   102    42   100    1
   103    43   101    1
   104    43   102    1
   105    43   103    1
   106    44    45    1
   107    44   104    1
   108    45    46    1
   109    45   105    1
   110    46    48    1
   111    46   106    1
   112    47    48    1
   113    47    49    1
   114    47   107    1
   115    48   108    1
   116    49   109    1
   117    49   110    1
   118    50    52    1
   119    50   111    1
   120    51    53    1
   121    51   113    1
   122    52    54    1
   123    52   114    1
   124    53    57    1
   125    53   116    1
   126    54    56    1
   127    54   117    1
   128    55    56    1
   129    55    60    1
   130    55   118    1
   131    56   119    1
   132    57    59    1
   133    57   120    1
   134    58    59    1
   135    58    61    1
   136    58   121    1
   137    59   122    1
   138    60   124    1
   139    60   125    1
   140    60   126    1
   141    61   129    1
   142    61   130    1
