@<TRIPOS>MOLECULE
IMPHY012803
 42 41 0 0 0
SMALL
GASTEIGER

@<TRIPOS>ATOM
      1 O           2.5369   -0.8660    0.0000 O.3     1  UNL1       -0.3848
      2 C           3.4030   -0.3660    0.0000 C.3     1  UNL1        0.0814
      3 C           4.2690    0.1340    0.0000 C.3     1  UNL1       -0.0172
      4 C           5.1350   -0.3660    0.0000 C.3     1  UNL1       -0.0316
      5 C           6.0010    0.1340    0.0000 C.2     1  UNL1       -0.0849
      6 C           6.8671   -0.3660    0.0000 C.2     1  UNL1       -0.0762
      7 C           7.7331    0.1340    0.0000 C.3     1  UNL1       -0.0286
      8 C           3.9030   -1.2320    0.0000 C.3     1  UNL1       -0.0324
      9 C           2.9030    0.5000    0.0000 C.2     1  UNL1       -0.0602
     10 C           8.5991   -0.3660    0.0000 C.3     1  UNL1       -0.0308
     11 C           6.8671   -1.3660    0.0000 C.3     1  UNL1       -0.0438
     12 C           9.4651    0.1340    0.0000 C.2     1  UNL1       -0.0850
     13 C          10.3312   -0.3660    0.0000 C.2     1  UNL1       -0.0796
     14 C           3.4030    1.3660    0.0000 C.2     1  UNL1       -0.1000
     15 C          11.1972    0.1340    0.0000 C.3     1  UNL1       -0.0440
     16 C          10.3312   -1.3660    0.0000 C.3     1  UNL1       -0.0440
     17 H           4.6675    0.6089    0.0000 H       1  UNL1        0.0299
     18 H           3.8705    0.6089    0.0000 H       1  UNL1        0.0299
     19 H           4.7365   -0.8410    0.0000 H       1  UNL1        0.0308
     20 H           5.5335   -0.8410    0.0000 H       1  UNL1        0.0308
     21 H           6.0010    0.7540    0.0000 H       1  UNL1        0.0572
     22 H           8.1316    0.6089    0.0000 H       1  UNL1        0.0313
     23 H           7.3346    0.6089    0.0000 H       1  UNL1        0.0313
     24 H           3.3660   -1.5420    0.0000 H       1  UNL1        0.0260
     25 H           4.2130   -1.7690    0.0000 H       1  UNL1        0.0260
     26 H           4.4399   -0.9221    0.0000 H       1  UNL1        0.0260
     27 H           2.2830    0.5000    0.0000 H       1  UNL1        0.0594
     28 H           8.2006   -0.8410    0.0000 H       1  UNL1        0.0310
     29 H           8.9976   -0.8410    0.0000 H       1  UNL1        0.0310
     30 H           6.2471   -1.3660    0.0000 H       1  UNL1        0.0274
     31 H           6.8671   -1.9860    0.0000 H       1  UNL1        0.0274
     32 H           7.4871   -1.3660    0.0000 H       1  UNL1        0.0274
     33 H           2.0000   -0.5560    0.0000 H       1  UNL1        0.2106
     34 H           9.4651    0.7540    0.0000 H       1  UNL1        0.0572
     35 H           4.0230    1.3660    0.0000 H       1  UNL1        0.0533
     36 H           3.0930    1.9030    0.0000 H       1  UNL1        0.0533
     37 H          11.5072   -0.4030    0.0000 H       1  UNL1        0.0274
     38 H          11.7341    0.4440    0.0000 H       1  UNL1        0.0274
     39 H          10.8872    0.6709    0.0000 H       1  UNL1        0.0274
     40 H           9.7112   -1.3660    0.0000 H       1  UNL1        0.0274
     41 H          10.3312   -1.9860    0.0000 H       1  UNL1        0.0274
     42 H          10.9512   -1.3660    0.0000 H       1  UNL1        0.0274
@<TRIPOS>BOND
     1     2     1    1
     2     1    33    1
     3     2     3    1
     4     2     8    1
     5     2     9    1
     6     3     4    1
     7     3    17    1
     8     3    18    1
     9     4     5    1
    10     4    19    1
    11     4    20    1
    12     5     6    2
    13     5    21    1
    14     6     7    1
    15     6    11    1
    16     7    10    1
    17     7    22    1
    18     7    23    1
    19     8    24    1
    20     8    25    1
    21     8    26    1
    22     9    14    2
    23     9    27    1
    24    10    12    1
    25    10    28    1
    26    10    29    1
    27    11    30    1
    28    11    31    1
    29    11    32    1
    30    12    13    2
    31    12    34    1
    32    13    15    1
    33    13    16    1
    34    14    35    1
    35    14    36    1
    36    15    37    1
    37    15    38    1
    38    15    39    1
    39    16    40    1
    40    16    41    1
    41    16    42    1
