@<TRIPOS>MOLECULE
IMPHY007549
 60 62 0 0 0
SMALL
GASTEIGER

@<TRIPOS>ATOM
      1 O           6.0682   -0.4777    0.0000 O.3     1  UNL1       -0.4577
      2 O           9.5984   -0.5019    0.0000 O.2     1  UNL1       -0.2953
      3 O           7.8167    2.5568    0.0000 O.2     1  UNL1       -0.2912
      4 O           4.3198    2.5568    0.0000 O.3     1  UNL1       -0.5062
      5 O           2.5381   -0.5019    0.0000 O.3     1  UNL1       -0.5058
      6 O           5.1916   -2.0023    0.0000 O.2     1  UNL1       -0.2915
      7 C           7.8282   -0.5124    0.0000 C.3     1  UNL1        0.0823
      8 C           6.0682    1.5223    0.0000 C.3     1  UNL1        0.0250
      9 C           8.7343    1.0431    0.0000 C.3     1  UNL1        0.0866
     10 C           6.9343    1.0223    0.0000 C.2     1  UNL1        0.0427
     11 C           6.9343    0.0223    0.0000 C.2     1  UNL1        0.1255
     12 C           8.7343    0.0014    0.0000 C.2     1  UNL1        0.1592
     13 C           7.8282    1.5569    0.0000 C.2     1  UNL1        0.1757
     14 C           6.0682    2.5222    0.0000 C.3     1  UNL1       -0.0354
     15 C           5.2022    1.0223    0.0000 C.ar    1  UNL1        0.0450
     16 C           8.3182   -1.3842    0.0000 C.3     1  UNL1       -0.0460
     17 C           7.3182   -1.3726    0.0000 C.3     1  UNL1       -0.0460
     18 C           5.2022    0.0223    0.0000 C.ar    1  UNL1        0.1492
     19 C           9.7343    1.0469    0.0000 C.3     1  UNL1       -0.0459
     20 C           9.2309    1.9110    0.0000 C.3     1  UNL1       -0.0459
     21 C           5.2022    3.0222    0.0000 C.3     1  UNL1       -0.0618
     22 C           6.9343    3.0222    0.0000 C.3     1  UNL1       -0.0618
     23 C           4.3083    1.5569    0.0000 C.ar    1  UNL1        0.1276
     24 C           4.3083   -0.5124    0.0000 C.ar    1  UNL1        0.1016
     25 C           3.4022    1.0431    0.0000 C.ar    1  UNL1        0.0225
     26 C           3.4022    0.0014    0.0000 C.ar    1  UNL1        0.1344
     27 C           4.3198   -1.5123    0.0000 C.2     1  UNL1        0.1727
     28 C           3.4597   -2.0223    0.0000 C.3     1  UNL1        0.0167
     29 C           3.4712   -3.0222    0.0000 C.3     1  UNL1       -0.0556
     30 C           2.5879   -1.5324    0.0000 C.3     1  UNL1       -0.0556
     31 H           6.6052    1.8322    0.0000 H       1  UNL1        0.0404
     32 H           6.0682    3.1423    0.0000 H       1  UNL1        0.0305
     33 H           7.7777   -1.6879    0.0000 H       1  UNL1        0.0243
     34 H           8.6219   -1.9246    0.0000 H       1  UNL1        0.0243
     35 H           8.8587   -1.0804    0.0000 H       1  UNL1        0.0243
     36 H           6.7849   -1.0564    0.0000 H       1  UNL1        0.0243
     37 H           7.0020   -1.9059    0.0000 H       1  UNL1        0.0243
     38 H           7.8516   -1.6888    0.0000 H       1  UNL1        0.0243
     39 H           9.7367    0.4269    0.0000 H       1  UNL1        0.0243
     40 H          10.3543    1.0493    0.0000 H       1  UNL1        0.0243
     41 H           9.7319    1.6669    0.0000 H       1  UNL1        0.0243
     42 H           9.7691    1.6031    0.0000 H       1  UNL1        0.0243
     43 H           9.5389    2.4491    0.0000 H       1  UNL1        0.0243
     44 H           8.6928    2.2189    0.0000 H       1  UNL1        0.0243
     45 H           5.5122    3.5592    0.0000 H       1  UNL1        0.0233
     46 H           4.6653    3.3322    0.0000 H       1  UNL1        0.0233
     47 H           4.8922    2.4853    0.0000 H       1  UNL1        0.0233
     48 H           7.2443    2.4853    0.0000 H       1  UNL1        0.0233
     49 H           7.4712    3.3322    0.0000 H       1  UNL1        0.0233
     50 H           6.6243    3.5592    0.0000 H       1  UNL1        0.0233
     51 H           2.8665    1.3551    0.0000 H       1  UNL1        0.0691
     52 H           3.4525   -1.4024    0.0000 H       1  UNL1        0.0375
     53 H           3.7865    2.8730    0.0000 H       1  UNL1        0.2921
     54 H           2.0000   -0.1940    0.0000 H       1  UNL1        0.2922
     55 H           2.8513   -3.0294    0.0000 H       1  UNL1        0.0236
     56 H           3.4784   -3.6422    0.0000 H       1  UNL1        0.0236
     57 H           4.0912   -3.0151    0.0000 H       1  UNL1        0.0236
     58 H           2.8917   -0.9919    0.0000 H       1  UNL1        0.0236
     59 H           2.0474   -1.2286    0.0000 H       1  UNL1        0.0236
     60 H           2.2841   -2.0728    0.0000 H       1  UNL1        0.0236
@<TRIPOS>BOND
     1     1    11    1
     2     1    18    1
     3     2    12    2
     4     3    13    2
     5     4    23    1
     6     4    53    1
     7     5    26    1
     8     5    54    1
     9     6    27    2
    10     7    11    1
    11     7    12    1
    12     7    16    1
    13     7    17    1
    14     8    10    1
    15     8    14    1
    16     8    15    1
    17     8    31    1
    18     9    12    1
    19     9    13    1
    20     9    19    1
    21     9    20    1
    22    10    11    2
    23    10    13    1
    24    14    21    1
    25    14    22    1
    26    14    32    1
    27    15    18   ar
    28    15    23   ar
    29    16    33    1
    30    16    34    1
    31    16    35    1
    32    17    36    1
    33    17    37    1
    34    17    38    1
    35    18    24   ar
    36    19    39    1
    37    19    40    1
    38    19    41    1
    39    20    42    1
    40    20    43    1
    41    20    44    1
    42    21    45    1
    43    21    46    1
    44    21    47    1
    45    22    48    1
    46    22    49    1
    47    22    50    1
    48    23    25   ar
    49    24    26   ar
    50    24    27    1
    51    25    26   ar
    52    25    51    1
    53    27    28    1
    54    28    29    1
    55    28    30    1
    56    28    52    1
    57    29    55    1
    58    29    56    1
    59    29    57    1
    60    30    58    1
    61    30    59    1
    62    30    60    1
