@<TRIPOS>MOLECULE
IMPHY003157
 75 74 0 0 0
SMALL
GASTEIGER

@<TRIPOS>ATOM
      1 P           3.4030    4.2985    0.0000 P.3     1  UNL1        0.4724
      2 O           4.2690    4.7985    0.0000 O.3     1  UNL1       -0.2868
      3 O           2.5369    3.7985    0.0000 O.3     1  UNL1       -0.3026
      4 O           2.9030    5.1646    0.0000 O.3     1  UNL1       -0.3026
      5 O           3.9030    3.4325    0.0000 O.2     1  UNL1       -0.2275
      6 C           6.8671    4.2985    0.0000 C.3     1  UNL1       -0.0415
      7 C           7.7331    4.7985    0.0000 C.3     1  UNL1       -0.0469
      8 C           6.0010    4.7985    0.0000 C.3     1  UNL1       -0.0263
      9 C           8.5991    4.2985    0.0000 C.3     1  UNL1       -0.0343
     10 C           6.8671    3.2985    0.0000 C.3     1  UNL1       -0.0623
     11 C           5.1350    4.2985    0.0000 C.3     1  UNL1        0.0593
     12 C           9.4651    4.7985    0.0000 C.2     1  UNL1       -0.0850
     13 C          10.3312    4.2985    0.0000 C.2     1  UNL1       -0.0762
     14 C          10.3312    3.2985    0.0000 C.3     1  UNL1       -0.0286
     15 C          11.1972    2.7985    0.0000 C.3     1  UNL1       -0.0308
     16 C          11.1972    4.7985    0.0000 C.3     1  UNL1       -0.0438
     17 C          11.1972    1.7985    0.0000 C.2     1  UNL1       -0.0847
     18 C          12.0632    1.2985    0.0000 C.2     1  UNL1       -0.0762
     19 C          12.0632    0.2985    0.0000 C.3     1  UNL1       -0.0286
     20 C          12.9292   -0.2015    0.0000 C.3     1  UNL1       -0.0308
     21 C          12.9292   -1.2015    0.0000 C.2     1  UNL1       -0.0847
     22 C          13.7953   -1.7015    0.0000 C.2     1  UNL1       -0.0762
     23 C          13.7953   -2.7015    0.0000 C.3     1  UNL1       -0.0286
     24 C          12.9292    1.7985    0.0000 C.3     1  UNL1       -0.0438
     25 C          14.6613   -3.2015    0.0000 C.3     1  UNL1       -0.0308
     26 C          14.6613   -1.2015    0.0000 C.3     1  UNL1       -0.0438
     27 C          14.6613   -4.2015    0.0000 C.2     1  UNL1       -0.0850
     28 C          15.5273   -4.7015    0.0000 C.2     1  UNL1       -0.0796
     29 C          15.5273   -5.7015    0.0000 C.3     1  UNL1       -0.0440
     30 C          16.3933   -4.2015    0.0000 C.3     1  UNL1       -0.0440
     31 H           6.3301    3.9885    0.0000 H       1  UNL1        0.0299
     32 H           8.1316    5.2735    0.0000 H       1  UNL1        0.0271
     33 H           7.3346    5.2735    0.0000 H       1  UNL1        0.0271
     34 H           6.3996    5.2735    0.0000 H       1  UNL1        0.0290
     35 H           5.6025    5.2735    0.0000 H       1  UNL1        0.0290
     36 H           8.2006    3.8236    0.0000 H       1  UNL1        0.0307
     37 H           8.9976    3.8236    0.0000 H       1  UNL1        0.0307
     38 H           6.2471    3.2985    0.0000 H       1  UNL1        0.0232
     39 H           6.8671    2.6785    0.0000 H       1  UNL1        0.0232
     40 H           7.4871    3.2985    0.0000 H       1  UNL1        0.0232
     41 H           4.7365    3.8236    0.0000 H       1  UNL1        0.0566
     42 H           5.5335    3.8236    0.0000 H       1  UNL1        0.0566
     43 H           9.4651    5.4185    0.0000 H       1  UNL1        0.0572
     44 H           9.7206    3.4062    0.0000 H       1  UNL1        0.0313
     45 H          10.1191    2.7159    0.0000 H       1  UNL1        0.0313
     46 H          11.8078    2.6909    0.0000 H       1  UNL1        0.0310
     47 H          11.4092    3.3811    0.0000 H       1  UNL1        0.0310
     48 H          11.5072    4.2616    0.0000 H       1  UNL1        0.0274
     49 H          11.7341    5.1085    0.0000 H       1  UNL1        0.0274
     50 H          10.8872    5.3355    0.0000 H       1  UNL1        0.0274
     51 H          10.6603    1.4885    0.0000 H       1  UNL1        0.0572
     52 H          11.4526    0.4062    0.0000 H       1  UNL1        0.0313
     53 H          11.8512   -0.2841    0.0000 H       1  UNL1        0.0313
     54 H          13.5398   -0.3091    0.0000 H       1  UNL1        0.0310
     55 H          13.1413    0.3811    0.0000 H       1  UNL1        0.0310
     56 H          12.3923   -1.5115    0.0000 H       1  UNL1        0.0572
     57 H          13.1847   -2.5938    0.0000 H       1  UNL1        0.0313
     58 H          13.5832   -3.2841    0.0000 H       1  UNL1        0.0313
     59 H          13.2392    1.2616    0.0000 H       1  UNL1        0.0274
     60 H          13.4662    2.1085    0.0000 H       1  UNL1        0.0274
     61 H          12.6192    2.3354    0.0000 H       1  UNL1        0.0274
     62 H          15.2719   -3.3091    0.0000 H       1  UNL1        0.0310
     63 H          14.8733   -2.6189    0.0000 H       1  UNL1        0.0310
     64 H          14.9713   -1.7384    0.0000 H       1  UNL1        0.0274
     65 H          15.1982   -0.8915    0.0000 H       1  UNL1        0.0274
     66 H          14.3513   -0.6645    0.0000 H       1  UNL1        0.0274
     67 H          14.1244   -4.5115    0.0000 H       1  UNL1        0.0572
     68 H           2.0000    4.1085    0.0000 H       1  UNL1        0.2220
     69 H           3.2130    5.7015    0.0000 H       1  UNL1        0.2220
     70 H          14.9073   -5.7015    0.0000 H       1  UNL1        0.0274
     71 H          15.5273   -6.3215    0.0000 H       1  UNL1        0.0274
     72 H          16.1473   -5.7015    0.0000 H       1  UNL1        0.0274
     73 H          16.7033   -4.7384    0.0000 H       1  UNL1        0.0274
     74 H          16.9303   -3.8915    0.0000 H       1  UNL1        0.0274
     75 H          16.0833   -3.6645    0.0000 H       1  UNL1        0.0274
@<TRIPOS>BOND
     1     1     2    1
     2     1     3    1
     3     1     4    1
     4     1     5    2
     5     2    11    1
     6     3    68    1
     7     4    69    1
     8     6     7    1
     9     6     8    1
    10     6    10    1
    11     6    31    1
    12     7     9    1
    13     7    32    1
    14     7    33    1
    15     8    11    1
    16     8    34    1
    17     8    35    1
    18     9    12    1
    19     9    36    1
    20     9    37    1
    21    10    38    1
    22    10    39    1
    23    10    40    1
    24    11    41    1
    25    11    42    1
    26    12    13    2
    27    12    43    1
    28    13    14    1
    29    13    16    1
    30    14    15    1
    31    14    44    1
    32    14    45    1
    33    15    17    1
    34    15    46    1
    35    15    47    1
    36    16    48    1
    37    16    49    1
    38    16    50    1
    39    17    18    2
    40    17    51    1
    41    18    19    1
    42    18    24    1
    43    19    20    1
    44    19    52    1
    45    19    53    1
    46    20    21    1
    47    20    54    1
    48    20    55    1
    49    21    22    2
    50    21    56    1
    51    22    23    1
    52    22    26    1
    53    23    25    1
    54    23    57    1
    55    23    58    1
    56    24    59    1
    57    24    60    1
    58    24    61    1
    59    25    27    1
    60    25    62    1
    61    25    63    1
    62    26    64    1
    63    26    65    1
    64    26    66    1
    65    27    28    2
    66    27    67    1
    67    28    29    1
    68    28    30    1
    69    29    70    1
    70    29    71    1
    71    29    72    1
    72    30    73    1
    73    30    74    1
    74    30    75    1
