@<TRIPOS>MOLECULE
IMPHY000507
 28 33 0 0 0
SMALL
GASTEIGER

@<TRIPOS>ATOM
      1 C        2391.3200 2409.8700    0.0000 C.2     1  UNL1       -0.0141
      2 C        2345.5300 2436.4500    0.0000 C.2     1  UNL1       -0.0293
      3 C        2299.6100 2409.8700    0.0000 C.3     1  UNL1        0.0258
      4 C        2253.6800 2436.4500    0.0000 C.3     1  UNL1        0.0050
      5 C        2451.9700 2496.4500    0.0000 C.3     1  UNL1        0.0947
      6 C        2497.8900 2522.8900    0.0000 C.3     1  UNL1        0.0850
      7 C        2497.8900 2575.6600    0.0000 C.3     1  UNL1        0.2314
      8 O        2405.9200 2575.9200    0.0000 O.3     1  UNL1       -0.3256
      9 C        2405.9200 2523.0300    0.0000 C.3     1  UNL1        0.1372
     10 C        2360.1300 2496.7100    0.0000 C.3     1  UNL1        0.0475
     11 C        2360.1300 2443.8200    0.0000 C.3     1  UNL1        0.0665
     12 N        2451.9700 2443.4200    0.0000 N.3     1  UNL1       -0.2706
     13 C        2543.8200 2443.2900    0.0000 C.3     1  UNL1        0.0726
     14 C        2543.8200 2496.3200    0.0000 C.3     1  UNL1        0.0251
     15 C        2451.1800 2547.3700    0.0000 C.3     1  UNL1        0.0859
     16 C        2497.6300 2478.2900    0.0000 C.3     1  UNL1        0.0674
     17 C        2563.5500 2557.2400    0.0000 C.2     1  UNL1        0.1557
     18 O        2545.1300 2599.2100    0.0000 O.2     1  UNL1       -0.4595
     19 C        2609.4700 2530.6600    0.0000 C.2     1  UNL1        0.2117
     20 C        2624.7400 2481.0500    0.0000 C.2     1  UNL1        0.1780
     21 O        2579.3400 2453.8200    0.0000 O.2     1  UNL1       -0.4684
     22 C        2579.3400 2400.7900    0.0000 C.3     1  UNL1        0.2526
     23 C        2678.1600 2481.0500    0.0000 C.2     1  UNL1        0.0911
     24 C        2695.3900 2530.6600    0.0000 C.2     1  UNL1        0.3449
     25 O        2653.4200 2563.1600    0.0000 O.3     1  UNL1       -0.4153
     26 O        2746.3200 2545.2600    0.0000 O.2     1  UNL1       -0.2447
     27 C        2708.6800 2437.6300    0.0000 C.3     1  UNL1        0.0412
     28 C        2497.6300 2503.2900    0.0000 C.3     1  UNL1        0.0083
@<TRIPOS>BOND
     1     1     2    2
     2     2     3    1
     3     3     4    1
     4     5     1    1
     5     5     6    1
     6     5     9    1
     7     5    12    1
     8     6     7    1
     9     6    14    1
    10     7     8    1
    11     7    15    1
    12     7    18    1
    13     9     8    1
    14     9    10    1
    15    11    10    1
    16    11    15    1
    17    12    11    1
    18    12    13    1
    19    14    13    1
    20    15    16    1
    21    16    17    1
    22    16    28    1
    23    17    19    2
    24    18    17    1
    25    19    20    1
    26    19    25    1
    27    20    21    1
    28    20    23    2
    29    21    22    1
    30    23    24    1
    31    23    27    1
    32    24    26    2
    33    25    24    1
