@<TRIPOS>MOLECULE
IMPHY015750
 44 43 0 0 0
SMALL
GASTEIGER

@<TRIPOS>ATOM
      1 O           9.7942    0.7500    0.0000 O.3     1  UNL1       -0.4646
      2 O           8.9282   -0.7500    0.0000 O.2     1  UNL1       -0.2509
      3 C           5.4641    0.2500    0.0000 C.3     1  UNL1       -0.0530
      4 C           6.3301    0.7500    0.0000 C.3     1  UNL1       -0.0526
      5 C           4.5981    0.7500    0.0000 C.3     1  UNL1       -0.0531
      6 C           7.1962    0.2500    0.0000 C.3     1  UNL1       -0.0430
      7 C           3.7320    0.2500    0.0000 C.3     1  UNL1       -0.0533
      8 C          12.3923    0.2500    0.0000 C.3     1  UNL1       -0.0436
      9 C           8.0622    0.7500    0.0000 C.3     1  UNL1        0.0449
     10 C          11.5263    0.7500    0.0000 C.3     1  UNL1       -0.0162
     11 C           2.8660    0.7500    0.0000 C.3     1  UNL1       -0.0559
     12 C          10.6603    0.2500    0.0000 C.3     1  UNL1        0.0927
     13 C           8.9282    0.2500    0.0000 C.2     1  UNL1        0.3071
     14 C          13.2583    0.7500    0.0000 C.3     1  UNL1       -0.0626
     15 C          12.3923   -0.7500    0.0000 C.3     1  UNL1       -0.0626
     16 C           2.0000    0.2500    0.0000 C.3     1  UNL1       -0.0653
     17 H           5.0656   -0.2249    0.0000 H       1  UNL1        0.0265
     18 H           5.8626   -0.2249    0.0000 H       1  UNL1        0.0265
     19 H           6.7287    1.2250    0.0000 H       1  UNL1        0.0265
     20 H           5.9316    1.2250    0.0000 H       1  UNL1        0.0265
     21 H           4.9966    1.2250    0.0000 H       1  UNL1        0.0265
     22 H           4.1996    1.2250    0.0000 H       1  UNL1        0.0265
     23 H           6.7976   -0.2249    0.0000 H       1  UNL1        0.0270
     24 H           7.5947   -0.2249    0.0000 H       1  UNL1        0.0270
     25 H           3.3335   -0.2249    0.0000 H       1  UNL1        0.0265
     26 H           4.1306   -0.2249    0.0000 H       1  UNL1        0.0265
     27 H          11.8554   -0.0600    0.0000 H       1  UNL1        0.0297
     28 H           8.4607    1.2250    0.0000 H       1  UNL1        0.0377
     29 H           7.6636    1.2250    0.0000 H       1  UNL1        0.0377
     30 H          11.9248    1.2250    0.0000 H       1  UNL1        0.0300
     31 H          11.1278    1.2250    0.0000 H       1  UNL1        0.0300
     32 H           3.2646    1.2250    0.0000 H       1  UNL1        0.0263
     33 H           2.4675    1.2250    0.0000 H       1  UNL1        0.0263
     34 H          10.2617   -0.2249    0.0000 H       1  UNL1        0.0697
     35 H          11.0588   -0.2249    0.0000 H       1  UNL1        0.0697
     36 H          13.5683    0.2131    0.0000 H       1  UNL1        0.0232
     37 H          13.7953    1.0600    0.0000 H       1  UNL1        0.0232
     38 H          12.9483    1.2869    0.0000 H       1  UNL1        0.0232
     39 H          11.7723   -0.7500    0.0000 H       1  UNL1        0.0232
     40 H          12.3923   -1.3700    0.0000 H       1  UNL1        0.0232
     41 H          13.0123   -0.7500    0.0000 H       1  UNL1        0.0232
     42 H           1.6900    0.7869    0.0000 H       1  UNL1        0.0230
     43 H           1.4631   -0.0600    0.0000 H       1  UNL1        0.0230
     44 H           2.3100   -0.2869    0.0000 H       1  UNL1        0.0230
@<TRIPOS>BOND
     1     1    12    1
     2     1    13    1
     3     2    13    2
     4     3     4    1
     5     3     5    1
     6     3    17    1
     7     3    18    1
     8     4     6    1
     9     4    19    1
    10     4    20    1
    11     5     7    1
    12     5    21    1
    13     5    22    1
    14     6     9    1
    15     6    23    1
    16     6    24    1
    17     7    11    1
    18     7    25    1
    19     7    26    1
    20     8    10    1
    21     8    14    1
    22     8    15    1
    23     8    27    1
    24     9    13    1
    25     9    28    1
    26     9    29    1
    27    10    12    1
    28    10    30    1
    29    10    31    1
    30    11    16    1
    31    11    32    1
    32    11    33    1
    33    12    34    1
    34    12    35    1
    35    14    36    1
    36    14    37    1
    37    14    38    1
    38    15    39    1
    39    15    40    1
    40    15    41    1
    41    16    42    1
    42    16    43    1
    43    16    44    1
