@<TRIPOS>MOLECULE
IMPHY014450
 37 39 0 0 0
SMALL
GASTEIGER

@<TRIPOS>ATOM
      1 O           8.2991    1.6202    0.0000 O.3     1  UNL1       -0.4930
      2 O           4.0543    1.6202    0.0000 O.3     1  UNL1       -0.4895
      3 O           2.6720    0.1086    0.0000 O.3     1  UNL1       -0.4914
      4 N           6.1767    1.0212    0.0000 N.ar    1  UNL1       -0.3483
      5 C           6.6767   -0.5177    0.0000 C.ar    1  UNL1        0.0114
      6 C           5.6767   -0.5177    0.0000 C.ar    1  UNL1        0.0113
      7 C           6.9857    0.4334    0.0000 C.ar    1  UNL1        0.0898
      8 C           5.3677    0.4334    0.0000 C.ar    1  UNL1        0.0935
      9 C           7.3617   -1.3024    0.0000 C.ar    1  UNL1       -0.0489
     10 C           8.0011    0.6656    0.0000 C.ar    1  UNL1        0.1441
     11 C           4.3523    0.6656    0.0000 C.ar    1  UNL1        0.1854
     12 C           4.9917   -1.3024    0.0000 C.ar    1  UNL1       -0.0483
     13 C           8.3822   -1.0937    0.0000 C.ar    1  UNL1       -0.0463
     14 C           8.7040   -0.1030    0.0000 C.ar    1  UNL1       -0.0150
     15 C           3.6493   -0.1030    0.0000 C.ar    1  UNL1        0.1636
     16 C           3.9712   -1.0937    0.0000 C.ar    1  UNL1       -0.0156
     17 C           9.0484   -1.8394    0.0000 C.3     1  UNL1       -0.0396
     18 C           9.2748    1.8394    0.0000 C.3     1  UNL1        0.0789
     19 C           3.0786    1.8394    0.0000 C.3     1  UNL1        0.0791
     20 C           2.0000   -0.6319    0.0000 C.3     1  UNL1        0.0790
     21 H           6.1767    1.6412    0.0000 H       1  UNL1        0.1661
     22 H           7.1633   -1.8898    0.0000 H       1  UNL1        0.0627
     23 H           5.1901   -1.8898    0.0000 H       1  UNL1        0.0625
     24 H           9.3100    0.0282    0.0000 H       1  UNL1        0.0657
     25 H           3.5581   -1.5560    0.0000 H       1  UNL1        0.0655
     26 H           8.5861   -2.2525    0.0000 H       1  UNL1        0.0278
     27 H           9.4615   -2.3018    0.0000 H       1  UNL1        0.0278
     28 H           9.5108   -1.4263    0.0000 H       1  UNL1        0.0278
     29 H           9.4107    1.2345    0.0000 H       1  UNL1        0.0660
     30 H           9.8797    1.9753    0.0000 H       1  UNL1        0.0660
     31 H           9.1389    2.4443    0.0000 H       1  UNL1        0.0660
     32 H           3.2145    2.4443    0.0000 H       1  UNL1        0.0660
     33 H           2.4737    1.9753    0.0000 H       1  UNL1        0.0660
     34 H           2.9427    1.2345    0.0000 H       1  UNL1        0.0660
     35 H           1.5408   -0.2153    0.0000 H       1  UNL1        0.0660
     36 H           1.5834   -1.0911    0.0000 H       1  UNL1        0.0660
     37 H           2.4592   -1.0486    0.0000 H       1  UNL1        0.0660
@<TRIPOS>BOND
     1     1    10    1
     2     1    18    1
     3     2    11    1
     4     2    19    1
     5     3    15    1
     6     3    20    1
     7     4     7   ar
     8     4     8   ar
     9     4    21    1
    10     5     6   ar
    11     5     7   ar
    12     5     9   ar
    13     6     8   ar
    14     6    12   ar
    15     7    10   ar
    16     8    11   ar
    17     9    13   ar
    18     9    22    1
    19    10    14   ar
    20    11    15   ar
    21    12    16   ar
    22    12    23    1
    23    13    14   ar
    24    13    17    1
    25    14    24    1
    26    15    16   ar
    27    16    25    1
    28    17    26    1
    29    17    27    1
    30    17    28    1
    31    18    29    1
    32    18    30    1
    33    18    31    1
    34    19    32    1
    35    19    33    1
    36    19    34    1
    37    20    35    1
    38    20    36    1
    39    20    37    1
