@<TRIPOS>MOLECULE
IMPHY003201
 52 56 0 0 0
SMALL
GASTEIGER

@<TRIPOS>ATOM
      1 O           5.3424    3.8417    0.0000 O.2     1  UNL1       -0.4590
      2 O           1.7702    4.0716    0.0000 O.2     1  UNL1       -0.4182
      3 O           3.5301    1.0369    0.0000 O.3     1  UNL1       -0.4937
      4 O           3.5301    5.0369    0.0000 O.3     1  UNL1       -0.4884
      5 O           5.3424    8.9086    0.0000 O.2     2  UNL2       -0.4627
      6 O           1.7702    8.6786    0.0000 O.2     2  UNL2       -0.4219
      7 O           3.5301   11.7133    0.0000 O.3     2  UNL2       -0.4937
      8 O           0.0000    4.0611    0.0000 O.2     1  UNL1       -0.2452
      9 O           0.0000    8.6891    0.0000 O.2     2  UNL2       -0.2452
     10 C           4.3961    2.5369    0.0000 C.ar    1  UNL1        0.0662
     11 C           2.6641    2.5369    0.0000 C.ar    1  UNL1        0.0637
     12 C           4.3961    3.5369    0.0000 C.ar    1  UNL1        0.1834
     13 C           3.5301    2.0369    0.0000 C.ar    1  UNL1        0.1417
     14 C           2.6641    3.5369    0.0000 C.ar    1  UNL1        0.1876
     15 C           3.5301    4.0369    0.0000 C.ar    1  UNL1        0.2063
     16 C           4.3961   10.2133    0.0000 C.ar    2  UNL2        0.0625
     17 C           2.6641   10.2133    0.0000 C.ar    2  UNL2        0.0600
     18 C           3.5301   10.7133    0.0000 C.ar    2  UNL2        0.1414
     19 C           4.3961    9.2133    0.0000 C.ar    2  UNL2        0.1418
     20 C           5.3424    2.2322    0.0000 C.ar    1  UNL1       -0.0125
     21 C           2.6641    9.2133    0.0000 C.ar    2  UNL2        0.1461
     22 C           1.7702    2.0023    0.0000 C.ar    1  UNL1       -0.0406
     23 C           3.5301    8.7133    0.0000 C.ar    2  UNL2        0.0245
     24 C           5.9260    3.0369    0.0000 C.ar    1  UNL1        0.0934
     25 C           5.3424   10.5180    0.0000 C.ar    2  UNL2       -0.0126
     26 C           1.7702   10.7480    0.0000 C.ar    2  UNL2       -0.0408
     27 C           0.8641    2.5161    0.0000 C.ar    1  UNL1        0.0237
     28 C           0.8641    3.5578    0.0000 C.ar    1  UNL1        0.3373
     29 C           5.9260    9.7133    0.0000 C.ar    2  UNL2        0.0933
     30 C           0.8641   10.2341    0.0000 C.ar    2  UNL2        0.0237
     31 C           0.8641    9.1925    0.0000 C.ar    2  UNL2        0.3372
     32 C           4.3961    0.5369    0.0000 C.3     1  UNL1        0.0788
     33 C           4.3961    5.5369    0.0000 C.3     1  UNL1        0.0791
     34 C           4.3961   12.2133    0.0000 C.3     2  UNL2        0.0788
     35 H           5.5350    1.6429    0.0000 H       1  UNL1        0.0656
     36 H           1.7773    1.3823    0.0000 H       1  UNL1        0.0628
     37 H           3.5301    8.0933    0.0000 H       2  UNL2        0.0692
     38 H           6.5460    3.0369    0.0000 H       1  UNL1        0.1030
     39 H           5.5350   11.1073    0.0000 H       2  UNL2        0.0656
     40 H           1.7773   11.3679    0.0000 H       2  UNL2        0.0628
     41 H           0.3284    2.2040    0.0000 H       1  UNL1        0.0689
     42 H           6.5460    9.7133    0.0000 H       2  UNL2        0.1030
     43 H           0.3284   10.5462    0.0000 H       2  UNL2        0.0689
     44 H           4.0862    0.0000    0.0000 H       1  UNL1        0.0660
     45 H           4.9331    0.2269    0.0000 H       1  UNL1        0.0660
     46 H           4.7062    1.0739    0.0000 H       1  UNL1        0.0660
     47 H           4.7062    5.0000    0.0000 H       1  UNL1        0.0660
     48 H           4.9331    5.8469    0.0000 H       1  UNL1        0.0660
     49 H           4.0862    6.0739    0.0000 H       1  UNL1        0.0660
     50 H           4.7062   11.6764    0.0000 H       2  UNL2        0.0660
     51 H           4.9331   12.5233    0.0000 H       2  UNL2        0.0660
     52 H           4.0862   12.7502    0.0000 H       2  UNL2        0.0660
@<TRIPOS>BOND
     1     1    12   ar
     2     1    24   ar
     3     2    14   ar
     4     2    28   ar
     5     3    13    1
     6     3    32    1
     7     4    15    1
     8     4    33    1
     9     5    19   ar
    10     5    29   ar
    11     6    21   ar
    12     6    31   ar
    13     7    18    1
    14     7    34    1
    15     8    28    2
    16     9    31    2
    17    10    12   ar
    18    10    13   ar
    19    10    20   ar
    20    11    13   ar
    21    11    14   ar
    22    11    22   ar
    23    12    15   ar
    24    14    15   ar
    25    16    18   ar
    26    16    19   ar
    27    16    25   ar
    28    17    18   ar
    29    17    21   ar
    30    17    26   ar
    31    19    23   ar
    32    20    24   ar
    33    20    35    1
    34    21    23   ar
    35    22    27   ar
    36    22    36    1
    37    23    37    1
    38    24    38    1
    39    25    29   ar
    40    25    39    1
    41    26    30   ar
    42    26    40    1
    43    27    28   ar
    44    27    41    1
    45    29    42    1
    46    30    31   ar
    47    30    43    1
    48    32    44    1
    49    32    45    1
    50    32    46    1
    51    33    47    1
    52    33    48    1
    53    33    49    1
    54    34    50    1
    55    34    51    1
    56    34    52    1
