@<TRIPOS>MOLECULE
IMPHY010182
 37 38 0 0 0
SMALL
GASTEIGER

@<TRIPOS>ATOM
      1 C           5.5321   -0.2708    0.0000 C.3     1  UNL1       -0.0396
      2 C           4.6260   -0.7847    0.0000 C.3     1  UNL1       -0.0245
      3 C           5.5321    0.7708    0.0000 C.3     1  UNL1       -0.0462
      4 C           3.7320   -0.2500    0.0000 C.ar    1  UNL1       -0.0403
      5 C           4.6260    1.2847    0.0000 C.3     1  UNL1       -0.0269
      6 C           3.7320    0.7500    0.0000 C.ar    1  UNL1       -0.0410
      7 C           2.8660   -0.7500    0.0000 C.ar    1  UNL1       -0.0413
      8 C           6.3961   -0.7742    0.0000 C.3     1  UNL1       -0.0621
      9 C           2.8660    1.2500    0.0000 C.ar    1  UNL1       -0.0470
     10 C           2.8660   -1.7500    0.0000 C.3     1  UNL1       -0.0212
     11 C           2.0000   -0.2500    0.0000 C.ar    1  UNL1       -0.0578
     12 C           2.0000    0.7500    0.0000 C.ar    1  UNL1       -0.0583
     13 C           2.0000   -2.2500    0.0000 C.3     1  UNL1       -0.0586
     14 C           3.7320   -2.2500    0.0000 C.3     1  UNL1       -0.0586
     15 C           2.8660    2.2500    0.0000 C.3     1  UNL1       -0.0394
     16 H           5.5285   -0.8908    0.0000 H       1  UNL1        0.0301
     17 H           4.2214   -1.2544    0.0000 H       1  UNL1        0.0316
     18 H           5.0196   -1.2637    0.0000 H       1  UNL1        0.0316
     19 H           6.1429    0.6647    0.0000 H       1  UNL1        0.0271
     20 H           5.7411    1.3545    0.0000 H       1  UNL1        0.0271
     21 H           5.0196    1.7637    0.0000 H       1  UNL1        0.0313
     22 H           4.2214    1.7544    0.0000 H       1  UNL1        0.0313
     23 H           2.8660   -2.3700    0.0000 H       1  UNL1        0.0344
     24 H           6.0841   -1.3099    0.0000 H       1  UNL1        0.0233
     25 H           6.9319   -1.0862    0.0000 H       1  UNL1        0.0233
     26 H           6.7082   -0.2384    0.0000 H       1  UNL1        0.0233
     27 H           1.4631   -0.5600    0.0000 H       1  UNL1        0.0621
     28 H           1.4631    1.0600    0.0000 H       1  UNL1        0.0620
     29 H           3.4220   -2.7869    0.0000 H       1  UNL1        0.0235
     30 H           1.6900   -1.7131    0.0000 H       1  UNL1        0.0235
     31 H           1.4631   -2.5600    0.0000 H       1  UNL1        0.0235
     32 H           2.3100   -2.7869    0.0000 H       1  UNL1        0.0235
     33 H           4.2690   -2.5600    0.0000 H       1  UNL1        0.0235
     34 H           4.0420   -1.7131    0.0000 H       1  UNL1        0.0235
     35 H           3.4860    2.2500    0.0000 H       1  UNL1        0.0278
     36 H           2.8660    2.8700    0.0000 H       1  UNL1        0.0278
     37 H           2.2460    2.2500    0.0000 H       1  UNL1        0.0278
@<TRIPOS>BOND
     1     1     2    1
     2     1     3    1
     3     1     8    1
     4     1    16    1
     5     2     4    1
     6     2    17    1
     7     2    18    1
     8     3     5    1
     9     3    19    1
    10     3    20    1
    11     4     6   ar
    12     4     7   ar
    13     5     6    1
    14     5    21    1
    15     5    22    1
    16     6     9   ar
    17     7    10    1
    18     7    11   ar
    19     8    24    1
    20     8    25    1
    21     8    26    1
    22     9    12   ar
    23     9    15    1
    24    10    13    1
    25    10    14    1
    26    10    23    1
    27    11    12   ar
    28    11    27    1
    29    12    28    1
    30    13    30    1
    31    13    31    1
    32    13    32    1
    33    14    29    1
    34    14    33    1
    35    14    34    1
    36    15    35    1
    37    15    36    1
    38    15    37    1
