@<TRIPOS>MOLECULE
IMPHY004475
 31 34 0 0 0
SMALL
GASTEIGER

@<TRIPOS>ATOM
      1 O           6.1621   -1.1814    0.0000 O.2     1  UNL1       -0.4537
      2 O           8.3061    0.8871    0.0000 O.2     1  UNL1       -0.4214
      3 O           2.6726   -0.2772    0.0000 O.3     1  UNL1       -0.4950
      4 O           7.0190    2.0460    0.0000 O.2     1  UNL1       -0.2444
      5 O          10.9457   -1.4571    0.0000 O.3     1  UNL1       -0.5066
      6 C           6.6589    0.3518    0.0000 C.ar    1  UNL1        0.1128
      7 C           6.9679   -0.5992    0.0000 C.ar    1  UNL1        0.1538
      8 C           5.6648    0.3492    0.0000 C.ar    1  UNL1        0.0351
      9 C           7.9460   -0.8071    0.0000 C.ar    1  UNL1        0.0607
     10 C           5.3584   -0.5964    0.0000 C.ar    1  UNL1        0.1400
     11 C           8.6152   -0.0640    0.0000 C.ar    1  UNL1        0.1461
     12 C           7.3280    1.0950    0.0000 C.ar    1  UNL1        0.3488
     13 C           4.9832    1.1287    0.0000 C.ar    1  UNL1       -0.0467
     14 C           4.3492   -0.8282    0.0000 C.ar    1  UNL1        0.0230
     15 C           8.2526   -1.8026    0.0000 C.ar    1  UNL1       -0.0441
     16 C           3.6498   -0.0647    0.0000 C.ar    1  UNL1        0.1236
     17 C           3.9689    0.9204    0.0000 C.ar    1  UNL1       -0.0191
     18 C           9.6372   -0.2648    0.0000 C.ar    1  UNL1        0.0230
     19 C           9.2698   -2.0271    0.0000 C.ar    1  UNL1       -0.0193
     20 C           9.9668   -1.2530    0.0000 C.ar    1  UNL1        0.1204
     21 C           2.0000    0.4628    0.0000 C.3     1  UNL1        0.0788
     22 H           5.1811    1.7163    0.0000 H       1  UNL1        0.0626
     23 H           4.1650   -1.4202    0.0000 H       1  UNL1        0.0691
     24 H           7.8324   -2.2586    0.0000 H       1  UNL1        0.0627
     25 H           3.5554    1.3824    0.0000 H       1  UNL1        0.0654
     26 H          10.0467    0.2007    0.0000 H       1  UNL1        0.0691
     27 H           9.4591   -2.6174    0.0000 H       1  UNL1        0.0654
     28 H          11.1396   -2.0460    0.0000 H       1  UNL1        0.2921
     29 H           2.4588    0.8798    0.0000 H       1  UNL1        0.0660
     30 H           1.5830    0.9216    0.0000 H       1  UNL1        0.0660
     31 H           1.5412    0.0458    0.0000 H       1  UNL1        0.0660
@<TRIPOS>BOND
     1     1     7   ar
     2     1    10   ar
     3     2    11   ar
     4     2    12   ar
     5     3    16    1
     6     3    21    1
     7     4    12    2
     8     5    20    1
     9     5    28    1
    10     6     7   ar
    11     6     8   ar
    12     6    12   ar
    13     7     9   ar
    14     8    10   ar
    15     8    13   ar
    16     9    11   ar
    17     9    15   ar
    18    10    14   ar
    19    11    18   ar
    20    13    17   ar
    21    13    22    1
    22    14    16   ar
    23    14    23    1
    24    15    19   ar
    25    15    24    1
    26    16    17   ar
    27    17    25    1
    28    18    20   ar
    29    18    26    1
    30    19    20   ar
    31    19    27    1
    32    21    29    1
    33    21    30    1
    34    21    31    1
