@<TRIPOS>MOLECULE
IMPHY000706
 22 23 0 0 0
SMALL
GASTEIGER

@<TRIPOS>ATOM
      1 CL          2.8660    1.1771    0.0000 Cl      1  UNL1       -0.0829
      2 O           6.2781    2.0891    0.0000 O.3     1  UNL1       -0.4804
      3 O           6.6353    0.3943    0.0000 O.2     1  UNL1       -0.2507
      4 N           4.6783   -1.6276    0.0000 N.ar    1  UNL1       -0.3603
      5 C           3.7320   -0.3229    0.0000 C.ar    1  UNL1        0.0216
      6 C           4.6783   -0.0182    0.0000 C.ar    1  UNL1       -0.0104
      7 C           3.7320   -1.3229    0.0000 C.ar    1  UNL1        0.0481
      8 C           5.2619   -0.8229    0.0000 C.ar    1  UNL1        0.0065
      9 C           4.9889    0.9324    0.0000 C.3     1  UNL1        0.0719
     10 C           2.8660    0.1771    0.0000 C.ar    1  UNL1        0.0504
     11 C           2.8660   -1.8229    0.0000 C.ar    1  UNL1       -0.0377
     12 C           2.0000   -0.3229    0.0000 C.ar    1  UNL1       -0.0427
     13 C           2.0000   -1.3229    0.0000 C.ar    1  UNL1       -0.0584
     14 C           5.9674    1.1386    0.0000 C.2     1  UNL1        0.3091
     15 H           4.9684    1.5520    0.0000 H       1  UNL1        0.0427
     16 H           4.3751    1.0197    0.0000 H       1  UNL1        0.0427
     17 H           5.8819   -0.8229    0.0000 H       1  UNL1        0.0810
     18 H           4.8709   -2.2170    0.0000 H       1  UNL1        0.1653
     19 H           2.8660   -2.4429    0.0000 H       1  UNL1        0.0638
     20 H           1.4631   -0.0129    0.0000 H       1  UNL1        0.0632
     21 H           1.4631   -1.6329    0.0000 H       1  UNL1        0.0619
     22 H           6.8848    2.2170    0.0000 H       1  UNL1        0.2951
@<TRIPOS>BOND
     1     1    10    1
     2     2    14    1
     3     2    22    1
     4     3    14    2
     5     4     7   ar
     6     4     8   ar
     7     4    18    1
     8     5     6   ar
     9     5     7   ar
    10     5    10   ar
    11     6     8   ar
    12     6     9    1
    13     7    11   ar
    14     8    17    1
    15     9    14    1
    16     9    15    1
    17     9    16    1
    18    10    12   ar
    19    11    13   ar
    20    11    19    1
    21    12    13   ar
    22    12    20    1
    23    13    21    1
