@<TRIPOS>MOLECULE
IMPHY007977
 31 31 0 0 0
SMALL
GASTEIGER

@<TRIPOS>ATOM
      1 O           3.7320   -0.5000    0.0000 O.3     1  UNL1       -0.4305
      2 O           2.0000   -0.5000    0.0000 O.2     1  UNL1       -0.2445
      3 C           5.4641    2.5000    0.0000 C.3     1  UNL1       -0.0498
      4 C           5.4641    3.5000    0.0000 C.3     1  UNL1       -0.0556
      5 C           4.5981    2.0000    0.0000 C.3     1  UNL1       -0.0316
      6 C           6.3301    4.0000    0.0000 C.3     1  UNL1       -0.0653
      7 C           4.5981    1.0000    0.0000 C.2     1  UNL1       -0.0490
      8 C           3.7320    0.5000    0.0000 C.2     1  UNL1        0.0920
      9 C           2.8660   -2.0000    0.0000 C.ar    1  UNL1        0.0594
     10 C           2.8660   -1.0000    0.0000 C.2     1  UNL1        0.3439
     11 C           2.0000   -2.5000    0.0000 C.ar    1  UNL1       -0.0478
     12 C           3.7320   -2.5000    0.0000 C.ar    1  UNL1       -0.0478
     13 C           2.0000   -3.5000    0.0000 C.ar    1  UNL1       -0.0610
     14 C           3.7320   -3.5000    0.0000 C.ar    1  UNL1       -0.0610
     15 C           2.8660   -4.0000    0.0000 C.ar    1  UNL1       -0.0617
     16 H           5.6762    1.9174    0.0000 H       1  UNL1        0.0268
     17 H           6.0747    2.6077    0.0000 H       1  UNL1        0.0268
     18 H           5.2520    4.0826    0.0000 H       1  UNL1        0.0263
     19 H           4.8535    3.3923    0.0000 H       1  UNL1        0.0263
     20 H           4.3860    2.5826    0.0000 H       1  UNL1        0.0308
     21 H           3.9875    1.8923    0.0000 H       1  UNL1        0.0308
     22 H           6.6401    3.4631    0.0000 H       1  UNL1        0.0230
     23 H           6.8671    4.3100    0.0000 H       1  UNL1        0.0230
     24 H           6.0201    4.5369    0.0000 H       1  UNL1        0.0230
     25 H           5.1350    0.6900    0.0000 H       1  UNL1        0.0602
     26 H           3.1951    0.8100    0.0000 H       1  UNL1        0.1027
     27 H           1.4631   -2.1900    0.0000 H       1  UNL1        0.0626
     28 H           4.2690   -2.1900    0.0000 H       1  UNL1        0.0626
     29 H           1.4631   -3.8100    0.0000 H       1  UNL1        0.0618
     30 H           4.2690   -3.8100    0.0000 H       1  UNL1        0.0618
     31 H           2.8660   -4.6200    0.0000 H       1  UNL1        0.0618
@<TRIPOS>BOND
     1     1     8    1
     2     1    10    1
     3     2    10    2
     4     3     4    1
     5     3     5    1
     6     3    16    1
     7     3    17    1
     8     4     6    1
     9     4    18    1
    10     4    19    1
    11     5     7    1
    12     5    20    1
    13     5    21    1
    14     6    22    1
    15     6    23    1
    16     6    24    1
    17     7     8    2
    18     7    25    1
    19     8    26    1
    20     9    10    1
    21     9    11   ar
    22     9    12   ar
    23    11    13   ar
    24    11    27    1
    25    12    14   ar
    26    12    28    1
    27    13    15   ar
    28    13    29    1
    29    14    15   ar
    30    14    30    1
    31    15    31    1
