@<TRIPOS>MOLECULE
IMPHY011399
 43 45 0 0 0
SMALL
GASTEIGER

@<TRIPOS>ATOM
      1 O           6.3981   -0.4254    0.0000 O.3     1  UNL1       -0.4789
      2 O           4.6497   -1.4600    0.0000 O.3     1  UNL1       -0.4885
      3 O           6.3981    2.5746    0.0000 O.2     1  UNL1       -0.2917
      4 O           7.2641   -1.9254    0.0000 O.3     1  UNL1       -0.4946
      5 O           4.6497    2.6092    0.0000 O.3     1  UNL1       -0.5058
      6 O           2.8680   -0.4495    0.0000 O.3     1  UNL1       -0.4912
      7 O           8.9962    1.0746    0.0000 O.3     1  UNL1       -0.5063
      8 C           7.2641    0.0746    0.0000 C.3     1  UNL1        0.1391
      9 C           7.2641    1.0746    0.0000 C.3     1  UNL1        0.0522
     10 C           8.1301   -0.4254    0.0000 C.ar    1  UNL1        0.0760
     11 C           5.5320    1.0746    0.0000 C.ar    1  UNL1        0.1043
     12 C           5.5320    0.0746    0.0000 C.ar    1  UNL1        0.1804
     13 C           6.3981    1.5746    0.0000 C.2     1  UNL1        0.1741
     14 C           4.6381   -0.4601    0.0000 C.ar    1  UNL1        0.2045
     15 C           4.6381    1.6093    0.0000 C.ar    1  UNL1        0.1346
     16 C           8.1301   -1.4254    0.0000 C.ar    1  UNL1        0.1303
     17 C           8.9962    0.0746    0.0000 C.ar    1  UNL1        0.1271
     18 C           3.7320    0.0538    0.0000 C.ar    1  UNL1        0.1687
     19 C           3.7320    1.0954    0.0000 C.ar    1  UNL1        0.0261
     20 C           8.9962   -1.9254    0.0000 C.ar    1  UNL1       -0.0193
     21 C           9.8622   -0.4254    0.0000 C.ar    1  UNL1       -0.0196
     22 C           9.8622   -1.4254    0.0000 C.ar    1  UNL1       -0.0548
     23 C           3.7895   -1.9700    0.0000 C.3     1  UNL1        0.0791
     24 C           7.2641   -2.9254    0.0000 C.3     1  UNL1        0.0788
     25 C           2.0000    0.0471    0.0000 C.3     1  UNL1        0.0790
     26 H           7.2641   -0.5454    0.0000 H       1  UNL1        0.0791
     27 H           7.8747    0.9669    0.0000 H       1  UNL1        0.0385
     28 H           7.4762    1.6572    0.0000 H       1  UNL1        0.0385
     29 H           3.1963    1.4075    0.0000 H       1  UNL1        0.0692
     30 H           8.9962   -2.5454    0.0000 H       1  UNL1        0.0654
     31 H          10.3991   -0.1154    0.0000 H       1  UNL1        0.0654
     32 H          10.3991   -1.7354    0.0000 H       1  UNL1        0.0620
     33 H           4.1164    2.9254    0.0000 H       1  UNL1        0.2922
     34 H           9.5331    1.3846    0.0000 H       1  UNL1        0.2921
     35 H           3.4733   -1.4366    0.0000 H       1  UNL1        0.0660
     36 H           3.2562   -2.2862    0.0000 H       1  UNL1        0.0660
     37 H           4.1057   -2.5033    0.0000 H       1  UNL1        0.0660
     38 H           6.6441   -2.9254    0.0000 H       1  UNL1        0.0660
     39 H           7.2641   -3.5454    0.0000 H       1  UNL1        0.0660
     40 H           7.8841   -2.9254    0.0000 H       1  UNL1        0.0660
     41 H           2.3079    0.5852    0.0000 H       1  UNL1        0.0660
     42 H           1.4619    0.3550    0.0000 H       1  UNL1        0.0660
     43 H           1.6921   -0.4910    0.0000 H       1  UNL1        0.0660
@<TRIPOS>BOND
     1     1     8    1
     2     1    12    1
     3     2    14    1
     4     2    23    1
     5     3    13    2
     6     4    16    1
     7     4    24    1
     8     5    15    1
     9     5    33    1
    10     6    18    1
    11     6    25    1
    12     7    17    1
    13     7    34    1
    14     8     9    1
    15     8    10    1
    16     8    26    1
    17     9    13    1
    18     9    27    1
    19     9    28    1
    20    10    16   ar
    21    10    17   ar
    22    11    12   ar
    23    11    13    1
    24    11    15   ar
    25    12    14   ar
    26    14    18   ar
    27    15    19   ar
    28    16    20   ar
    29    17    21   ar
    30    18    19   ar
    31    19    29    1
    32    20    22   ar
    33    20    30    1
    34    21    22   ar
    35    21    31    1
    36    22    32    1
    37    23    35    1
    38    23    36    1
    39    23    37    1
    40    24    38    1
    41    24    39    1
    42    24    40    1
    43    25    41    1
    44    25    42    1
    45    25    43    1
