@<TRIPOS>MOLECULE
IMPHY004036
 33 33 0 0 0
SMALL
GASTEIGER

@<TRIPOS>ATOM
      1 O           7.6751   -1.3157    0.0000 O.2     1  UNL1       -0.2971
      2 O           2.4608   -1.6759    0.0000 O.3     1  UNL1       -0.4806
      3 O           3.6197   -2.9630    0.0000 O.2     1  UNL1       -0.2510
      4 C           5.1060   -1.6248    0.0000 C.3     1  UNL1       -0.0208
      5 C           5.9150   -1.0370    0.0000 C.3     1  UNL1        0.0242
      6 C           5.4150   -2.5758    0.0000 C.3     1  UNL1       -0.0424
      7 C           6.4150   -2.5758    0.0000 C.3     1  UNL1        0.0064
      8 C           6.7240   -1.6248    0.0000 C.2     1  UNL1        0.1370
      9 C           4.1550   -1.3157    0.0000 C.3     1  UNL1        0.0483
     10 C           5.9150   -0.0370    0.0000 C.3     1  UNL1       -0.0250
     11 C           6.7810    0.4630    0.0000 C.2     1  UNL1       -0.0873
     12 C           3.4118   -1.9849    0.0000 C.2     1  UNL1        0.3050
     13 C           6.7810    1.4630    0.0000 C.2     1  UNL1       -0.0882
     14 C           5.9150    1.9630    0.0000 C.3     1  UNL1       -0.0376
     15 C           5.9150    2.9630    0.0000 C.3     1  UNL1       -0.0618
     16 H           4.6676   -2.0632    0.0000 H       1  UNL1        0.0313
     17 H           6.4675   -0.7555    0.0000 H       1  UNL1        0.0383
     18 H           4.8086   -2.7047    0.0000 H       1  UNL1        0.0272
     19 H           5.4798   -3.1924    0.0000 H       1  UNL1        0.0272
     20 H           6.3502   -3.1924    0.0000 H       1  UNL1        0.0342
     21 H           7.0215   -2.7047    0.0000 H       1  UNL1        0.0342
     22 H           4.4460   -0.7683    0.0000 H       1  UNL1        0.0380
     23 H           3.6664   -0.9340    0.0000 H       1  UNL1        0.0380
     24 H           5.7030    0.5456    0.0000 H       1  UNL1        0.0314
     25 H           5.3044   -0.1446    0.0000 H       1  UNL1        0.0314
     26 H           7.3180    0.1530    0.0000 H       1  UNL1        0.0569
     27 H           7.3180    1.7730    0.0000 H       1  UNL1        0.0569
     28 H           5.3044    2.0707    0.0000 H       1  UNL1        0.0305
     29 H           5.7030    1.3804    0.0000 H       1  UNL1        0.0305
     30 H           2.0000   -2.0907    0.0000 H       1  UNL1        0.2951
     31 H           6.5350    2.9630    0.0000 H       1  UNL1        0.0233
     32 H           5.9150    3.5830    0.0000 H       1  UNL1        0.0233
     33 H           5.2950    2.9630    0.0000 H       1  UNL1        0.0233
@<TRIPOS>BOND
     1     1     8    2
     2     2    12    1
     3     2    30    1
     4     3    12    2
     5     4     5    1
     6     4     6    1
     7     4     9    1
     8     4    16    1
     9     5     8    1
    10     5    10    1
    11     5    17    1
    12     6     7    1
    13     6    18    1
    14     6    19    1
    15     7     8    1
    16     7    20    1
    17     7    21    1
    18     9    12    1
    19     9    22    1
    20     9    23    1
    21    10    11    1
    22    10    24    1
    23    10    25    1
    24    11    13    2
    25    11    26    1
    26    13    14    1
    27    13    27    1
    28    14    15    1
    29    14    28    1
    30    14    29    1
    31    15    31    1
    32    15    32    1
    33    15    33    1
