@<TRIPOS>MOLECULE
IMPHY015493
 90 97 0 0 0
SMALL
GASTEIGER

@<TRIPOS>ATOM
      1 O           6.0380    1.9158    0.0000 O.3     1  UNL1       -0.3578
      2 O          10.1724    2.8452    0.0000 O.3     1  UNL1       -0.3329
      3 O           4.4368    0.7351    0.0000 O.3     1  UNL1       -0.3725
      4 O           8.0438   -1.4258    0.0000 O.3     1  UNL1       -0.3391
      5 O           5.5198    1.7319    0.0000 O.3     1  UNL1       -0.3886
      6 O           7.1737   -2.4424    0.0000 O.3     1  UNL1       -0.4574
      7 O           8.0406    4.1458    0.0000 O.3     1  UNL1       -0.3778
      8 O           9.1181   -0.7264    0.0000 O.3     1  UNL1       -0.3560
      9 O          10.4650    4.7198    0.0000 O.2     1  UNL1       -0.4680
     10 O           3.6339   -2.4560    0.0000 O.3     1  UNL1       -0.3905
     11 O           2.9999   -1.7664    0.0000 O.3     1  UNL1       -0.4674
     12 O           9.8466   -0.4420    0.0000 O.3     1  UNL1       -0.4642
     13 O           3.0200   -0.0344    0.0000 O.2     1  UNL1       -0.2500
     14 O           8.8309    0.9610    0.0000 O.2     1  UNL1       -0.2447
     15 O           6.3251   -3.9523    0.0000 O.2     1  UNL1       -0.2453
     16 C           6.9782    1.5739    0.0000 C.3     1  UNL1        0.1334
     17 C           7.1519    0.5891    0.0000 C.3     1  UNL1        0.0395
     18 C           6.8046    2.5587    0.0000 C.3     1  UNL1        0.1055
     19 C           7.1519   -0.4109    0.0000 C.3     1  UNL1        0.0462
     20 C           6.2859   -0.9109    0.0000 C.3     1  UNL1        0.0466
     21 C           8.2875    2.6888    0.0000 C.3     1  UNL1        0.0316
     22 C           8.4612    1.7040    0.0000 C.3     1  UNL1        0.0955
     23 C           5.4198   -0.4109    0.0000 C.3     1  UNL1        0.0196
     24 C           6.2859    1.0891    0.0000 C.3     1  UNL1        0.0902
     25 C           9.5440    1.1247    0.0000 C.3     1  UNL1       -0.0149
     26 C           5.4198    0.5891    0.0000 C.3     1  UNL1        0.0898
     27 C           4.5098   -0.9178    0.0000 C.3     1  UNL1        0.1225
     28 C           9.0283    3.9894    0.0000 C.3     1  UNL1        0.1545
     29 C           8.1237   -0.6201    0.0000 C.3     1  UNL1        0.2720
     30 C           6.3019   -1.9524    0.0000 C.3     1  UNL1        0.1143
     31 C           8.1519    0.5891    0.0000 C.3     1  UNL1       -0.0538
     32 C           6.9530   -1.6479    0.0000 C.3     1  UNL1        0.0613
     33 C           6.6310    3.5435    0.0000 C.3     1  UNL1       -0.0326
     34 C          10.0160    3.8329    0.0000 C.3     1  UNL1        0.2342
     35 C           4.5018   -1.9594    0.0000 C.3     1  UNL1        0.0768
     36 C           5.4039   -2.4802    0.0000 C.3     1  UNL1        0.0122
     37 C           3.9230   -0.1157    0.0000 C.3     1  UNL1        0.0667
     38 C           8.8753    4.9716    0.0000 C.2     1  UNL1       -0.0121
     39 C           3.5099   -0.9062    0.0000 C.2     1  UNL1        0.3182
     40 C           8.9338   -0.0337    0.0000 C.2     1  UNL1        0.3675
     41 C           9.7614    5.4221    0.0000 C.2     1  UNL1        0.0870
     42 C           7.1852   -3.4423    0.0000 C.2     1  UNL1        0.3348
     43 C           2.0000   -1.7548    0.0000 C.3     1  UNL1        0.0817
     44 C          10.6566    0.1443    0.0000 C.3     1  UNL1        0.0818
     45 C           8.0570   -3.9322    0.0000 C.2     1  UNL1        0.0293
     46 C           8.9172   -3.4223    0.0000 C.3     1  UNL1       -0.0333
     47 C           8.0686   -4.9322    0.0000 C.2     1  UNL1       -0.0774
     48 C           8.9403   -5.4221    0.0000 C.3     1  UNL1       -0.0461
     49 H           7.8132    0.1232    0.0000 H       1  UNL1        0.0373
     50 H           8.1399    3.5259    0.0000 H       1  UNL1        0.0363
     51 H           9.0804    1.7340    0.0000 H       1  UNL1        0.0627
     52 H           5.4198   -1.2609    0.0000 H       1  UNL1        0.0346
     53 H           6.6415    1.5970    0.0000 H       1  UNL1        0.0626
     54 H           9.4810    0.5079    0.0000 H       1  UNL1        0.0296
     55 H          10.1386    1.3005    0.0000 H       1  UNL1        0.0296
     56 H           5.2609    1.4241    0.0000 H       1  UNL1        0.0625
     57 H           6.3079   -2.5724    0.0000 H       1  UNL1        0.0741
     58 H           8.1519   -0.0309    0.0000 H       1  UNL1        0.0237
     59 H           8.7719    0.5891    0.0000 H       1  UNL1        0.0237
     60 H           8.1519    1.2091    0.0000 H       1  UNL1        0.0237
     61 H           6.4268   -1.9759    0.0000 H       1  UNL1        0.0568
     62 H           7.1824   -2.2239    0.0000 H       1  UNL1        0.0568
     63 H           7.2415    3.6512    0.0000 H       1  UNL1        0.0258
     64 H           6.5233    4.1541    0.0000 H       1  UNL1        0.0258
     65 H           6.0204    3.4358    0.0000 H       1  UNL1        0.0258
     66 H          10.8555    3.7000    0.0000 H       1  UNL1        0.1090
     67 H           4.5006   -2.5793    0.0000 H       1  UNL1        0.0606
     68 H           5.0066   -2.9561    0.0000 H       1  UNL1        0.0326
     69 H           5.8049   -2.9531    0.0000 H       1  UNL1        0.0326
     70 H           3.4391    0.2719    0.0000 H       1  UNL1        0.0572
     71 H           3.4752   -0.5444    0.0000 H       1  UNL1        0.0572
     72 H           4.9372    1.5198    0.0000 H       1  UNL1        0.2099
     73 H           8.3234    5.2540    0.0000 H       1  UNL1        0.0633
     74 H           7.8184    4.7246    0.0000 H       1  UNL1        0.2109
     75 H           9.3692   -1.2932    0.0000 H       1  UNL1        0.2133
     76 H           9.8584    6.0345    0.0000 H       1  UNL1        0.1022
     77 H           3.6315   -3.0760    0.0000 H       1  UNL1        0.2098
     78 H           2.0072   -1.1348    0.0000 H       1  UNL1        0.0661
     79 H           1.3800   -1.7476    0.0000 H       1  UNL1        0.0661
     80 H           1.9928   -2.3748    0.0000 H       1  UNL1        0.0661
     81 H          11.0202   -0.3579    0.0000 H       1  UNL1        0.0661
     82 H          11.1588    0.5079    0.0000 H       1  UNL1        0.0661
     83 H          10.2931    0.6466    0.0000 H       1  UNL1        0.0661
     84 H           9.2334   -3.9556    0.0000 H       1  UNL1        0.0280
     85 H           9.4505   -3.1061    0.0000 H       1  UNL1        0.0280
     86 H           8.6010   -2.8890    0.0000 H       1  UNL1        0.0280
     87 H           7.5352   -5.2484    0.0000 H       1  UNL1        0.0574
     88 H           8.6365   -5.9626    0.0000 H       1  UNL1        0.0272
     89 H           9.4808   -5.7259    0.0000 H       1  UNL1        0.0272
     90 H           9.2441   -4.8816    0.0000 H       1  UNL1        0.0272
@<TRIPOS>BOND
     1    16     1    1
     2     1    18    1
     3     2    22    1
     4     2    34    1
     5     3    26    1
     6     3    37    1
     7     4    29    1
     8     4    32    1
     9    24     5    1
    10     5    72    1
    11    30     6    1
    12     6    42    1
    13    28     7    1
    14     7    74    1
    15    29     8    1
    16     8    75    1
    17     9    34    1
    18     9    41    1
    19    35    10    1
    20    10    77    1
    21    11    39    1
    22    11    43    1
    23    12    40    1
    24    12    44    1
    25    13    39    2
    26    14    40    2
    27    15    42    2
    28    16    17    1
    29    16    18    1
    30    16    22    1
    31    17    19    1
    32    17    24    1
    33    17    31    1
    34    18    21    1
    35    18    33    1
    36    19    20    1
    37    19    29    1
    38    19    49    1
    39    20    23    1
    40    20    30    1
    41    20    32    1
    42    21    25    1
    43    21    28    1
    44    21    50    1
    45    22    25    1
    46    22    51    1
    47    23    26    1
    48    23    27    1
    49    23    52    1
    50    24    26    1
    51    24    53    1
    52    25    54    1
    53    25    55    1
    54    26    56    1
    55    27    35    1
    56    27    37    1
    57    27    39    1
    58    28    34    1
    59    28    38    1
    60    29    40    1
    61    30    36    1
    62    30    57    1
    63    31    58    1
    64    31    59    1
    65    31    60    1
    66    32    61    1
    67    32    62    1
    68    33    63    1
    69    33    64    1
    70    33    65    1
    71    34    66    1
    72    35    36    1
    73    35    67    1
    74    36    68    1
    75    36    69    1
    76    37    70    1
    77    37    71    1
    78    38    41    2
    79    38    73    1
    80    41    76    1
    81    42    45    1
    82    43    78    1
    83    43    79    1
    84    43    80    1
    85    44    81    1
    86    44    82    1
    87    44    83    1
    88    45    46    1
    89    45    47    2
    90    46    84    1
    91    46    85    1
    92    46    86    1
    93    47    48    1
    94    47    87    1
    95    48    88    1
    96    48    89    1
    97    48    90    1
