@<TRIPOS>MOLECULE
IMPHY000102
 73 77 0 0 0
SMALL
GASTEIGER

@<TRIPOS>ATOM
      1 O           4.3472   -3.2022    0.0000 O.3     1  UNL1       -0.3849
      2 O           2.5357   -2.1563    0.0000 O.3     1  UNL1       -0.3889
      3 N          10.4749    3.3080    0.0000 N.2     1  UNL1       -0.2919
      4 C           7.9288    0.8960    0.0000 C.3     1  UNL1       -0.0255
      5 C           7.9288   -0.1040    0.0000 C.3     1  UNL1       -0.0320
      6 C           7.0628   -0.6040    0.0000 C.3     1  UNL1       -0.0307
      7 C           6.1968   -0.1040    0.0000 C.3     1  UNL1       -0.0285
      8 C           8.8750    1.2007    0.0000 C.3     1  UNL1       -0.0277
      9 C           7.0628    1.3960    0.0000 C.3     1  UNL1       -0.0468
     10 C           5.2868   -0.6108    0.0000 C.3     1  UNL1       -0.0054
     11 C           8.8750   -0.4087    0.0000 C.3     1  UNL1       -0.0492
     12 C           6.1968    0.8960    0.0000 C.3     1  UNL1       -0.0486
     13 C           9.4586    0.3960    0.0000 C.3     1  UNL1       -0.0489
     14 C           7.0789   -1.6455    0.0000 C.3     1  UNL1       -0.0310
     15 C           7.9288    1.8960    0.0000 C.3     1  UNL1       -0.0590
     16 C           9.1857    2.1513    0.0000 C.3     1  UNL1       -0.0024
     17 C           5.2787   -1.6524    0.0000 C.2     1  UNL1       -0.0367
     18 C           4.3599   -0.0468    0.0000 C.3     1  UNL1       -0.0411
     19 C           6.1808   -2.1732    0.0000 C.2     1  UNL1       -0.0815
     20 C           5.2945    0.3891    0.0000 C.3     1  UNL1       -0.0555
     21 C           4.3433   -2.2022    0.0000 C.3     1  UNL1        0.1026
     22 C           3.4120   -0.5747    0.0000 C.3     1  UNL1       -0.0233
     23 C           3.4037   -1.6597    0.0000 C.3     1  UNL1        0.0849
     24 C          10.1642    2.3575    0.0000 C.2     1  UNL1        0.0166
     25 C           8.5179    2.8956    0.0000 C.3     1  UNL1       -0.0570
     26 C          10.8321    1.6132    0.0000 C.3     1  UNL1       -0.0141
     27 C          11.8106    1.8194    0.0000 C.3     1  UNL1       -0.0437
     28 C          12.1212    2.7699    0.0000 C.3     1  UNL1       -0.0240
     29 C          11.4534    3.5142    0.0000 C.3     1  UNL1        0.0422
     30 C          13.0997    2.9761    0.0000 C.3     1  UNL1       -0.0607
     31 H           8.0188   -0.9492    0.0000 H       1  UNL1        0.0309
     32 H           7.8022   -1.0233    0.0000 H       1  UNL1        0.0309
     33 H           6.9329    0.3210    0.0000 H       1  UNL1        0.0312
     34 H           9.7148    1.3326    0.0000 H       1  UNL1        0.0312
     35 H           7.4613    1.8710    0.0000 H       1  UNL1        0.0271
     36 H           6.6643    1.8710    0.0000 H       1  UNL1        0.0271
     37 H           8.6240   -0.9756    0.0000 H       1  UNL1        0.0268
     38 H           9.4124   -0.7179    0.0000 H       1  UNL1        0.0268
     39 H           5.9847    1.4786    0.0000 H       1  UNL1        0.0268
     40 H           5.5862    0.7883    0.0000 H       1  UNL1        0.0268
     41 H           9.9195   -0.0187    0.0000 H       1  UNL1        0.0268
     42 H           9.9195    0.8107    0.0000 H       1  UNL1        0.0268
     43 H           7.2969   -2.2259    0.0000 H       1  UNL1        0.0310
     44 H           7.6880   -1.5300    0.0000 H       1  UNL1        0.0310
     45 H           8.5488    1.8960    0.0000 H       1  UNL1        0.0235
     46 H           7.9288    2.5160    0.0000 H       1  UNL1        0.0235
     47 H           7.3088    1.8960    0.0000 H       1  UNL1        0.0235
     48 H           9.3783    2.7406    0.0000 H       1  UNL1        0.0361
     49 H           4.7681    0.4199    0.0000 H       1  UNL1        0.0274
     50 H           3.9700    0.4353    0.0000 H       1  UNL1        0.0274
     51 H           6.1832   -2.7932    0.0000 H       1  UNL1        0.0573
     52 H           5.9145    0.3844    0.0000 H       1  UNL1        0.0238
     53 H           5.2993    1.0091    0.0000 H       1  UNL1        0.0238
     54 H           4.6745    0.3939    0.0000 H       1  UNL1        0.0238
     55 H           3.8070   -2.5132    0.0000 H       1  UNL1        0.0666
     56 H           3.2075    0.0106    0.0000 H       1  UNL1        0.0291
     57 H           2.8004   -0.6761    0.0000 H       1  UNL1        0.0291
     58 H           2.8686   -1.3466    0.0000 H       1  UNL1        0.0622
     59 H           8.9793    3.3096    0.0000 H       1  UNL1        0.0236
     60 H           8.1038    3.3570    0.0000 H       1  UNL1        0.0236
     61 H           8.0564    2.4815    0.0000 H       1  UNL1        0.0236
     62 H          10.3057    1.2855    0.0000 H       1  UNL1        0.0325
     63 H          11.0633    1.0379    0.0000 H       1  UNL1        0.0325
     64 H           3.8114   -3.5142    0.0000 H       1  UNL1        0.2103
     65 H           2.0000   -1.8442    0.0000 H       1  UNL1        0.2099
     66 H          11.8311    1.1997    0.0000 H       1  UNL1        0.0272
     67 H          12.4244    1.7320    0.0000 H       1  UNL1        0.0272
     68 H          12.5353    2.3084    0.0000 H       1  UNL1        0.0316
     69 H          11.9797    3.8419    0.0000 H       1  UNL1        0.0511
     70 H          11.2221    4.0895    0.0000 H       1  UNL1        0.0511
     71 H          13.2276    2.3695    0.0000 H       1  UNL1        0.0233
     72 H          13.7064    3.1040    0.0000 H       1  UNL1        0.0233
     73 H          12.9719    3.5828    0.0000 H       1  UNL1        0.0233
@<TRIPOS>BOND
     1    21     1    1
     2     1    64    1
     3    23     2    1
     4     2    65    1
     5     3    24    2
     6     3    29    1
     7     4     5    1
     8     4     8    1
     9     4     9    1
    10     4    15    1
    11     5     6    1
    12     5    11    1
    13     5    31    1
    14     6     7    1
    15     6    14    1
    16     6    32    1
    17     7    10    1
    18     7    12    1
    19     7    33    1
    20     8    13    1
    21     8    16    1
    22     8    34    1
    23     9    12    1
    24     9    35    1
    25     9    36    1
    26    10    17    1
    27    10    18    1
    28    10    20    1
    29    11    13    1
    30    11    37    1
    31    11    38    1
    32    12    39    1
    33    12    40    1
    34    13    41    1
    35    13    42    1
    36    14    19    1
    37    14    43    1
    38    14    44    1
    39    15    45    1
    40    15    46    1
    41    15    47    1
    42    16    24    1
    43    16    25    1
    44    16    48    1
    45    17    19    2
    46    17    21    1
    47    18    22    1
    48    18    49    1
    49    18    50    1
    50    19    51    1
    51    20    52    1
    52    20    53    1
    53    20    54    1
    54    21    23    1
    55    21    55    1
    56    22    23    1
    57    22    56    1
    58    22    57    1
    59    23    58    1
    60    24    26    1
    61    25    59    1
    62    25    60    1
    63    25    61    1
    64    26    27    1
    65    26    62    1
    66    26    63    1
    67    27    28    1
    68    27    66    1
    69    27    67    1
    70    28    29    1
    71    28    30    1
    72    28    68    1
    73    29    69    1
    74    29    70    1
    75    30    71    1
    76    30    72    1
    77    30    73    1
