@<TRIPOS>MOLECULE
IMPHY008714
 72 75 0 0 0
SMALL
GASTEIGER

@<TRIPOS>ATOM
      1 O          10.3312   -1.0950    0.0000 O.3     1  UNL1       -0.3093
      2 O           8.5991   -1.0950    0.0000 O.3     1  UNL1       -0.3404
      3 O           9.4651    0.4050    0.0000 O.2     1  UNL1       -0.4699
      4 O           6.0010   -1.5950    0.0000 O.3     1  UNL1       -0.3460
      5 O           4.2690   -1.5950    0.0000 O.3     1  UNL1       -0.3405
      6 O          10.3312   -3.0950    0.0000 O.3     1  UNL1       -0.3841
      7 O           6.8671   -3.0950    0.0000 O.3     1  UNL1       -0.3865
      8 O           8.5991   -4.0950    0.0000 O.3     1  UNL1       -0.3864
      9 O          13.4326   -1.0565    0.0000 O.3     1  UNL1       -0.3907
     10 O           6.0010    0.4050    0.0000 O.3     1  UNL1       -0.3841
     11 O           4.2690    1.4050    0.0000 O.3     1  UNL1       -0.3864
     12 O           2.5369    0.4050    0.0000 O.3     1  UNL1       -0.3865
     13 O           9.4651    3.4050    0.0000 O.3     1  UNL1       -0.4646
     14 O          11.1972    3.4050    0.0000 O.2     1  UNL1       -0.2452
     15 O           2.5369   -2.5950    0.0000 O.3     1  UNL1       -0.3924
     16 C          11.1972    0.4050    0.0000 C.3     1  UNL1        0.0522
     17 C          11.1972    1.4050    0.0000 C.3     1  UNL1        0.0095
     18 C          10.3312   -0.0950    0.0000 C.3     1  UNL1        0.2106
     19 C          12.1434    1.7097    0.0000 C.3     1  UNL1       -0.0265
     20 C          12.1434    0.1003    0.0000 C.2     1  UNL1       -0.0388
     21 C           9.4651   -1.5950    0.0000 C.3     1  UNL1        0.1918
     22 C           7.7331   -1.5950    0.0000 C.3     1  UNL1        0.1134
     23 C           9.4651   -2.5950    0.0000 C.3     1  UNL1        0.1342
     24 C           7.7331   -2.5950    0.0000 C.3     1  UNL1        0.1119
     25 C           8.5991   -3.0950    0.0000 C.3     1  UNL1        0.1141
     26 C          12.7270    0.9050    0.0000 C.2     1  UNL1       -0.0815
     27 C          10.3312    1.9050    0.0000 C.2     1  UNL1        0.0749
     28 C           6.8671   -1.0950    0.0000 C.3     1  UNL1        0.0796
     29 C          12.4541   -0.8503    0.0000 C.3     1  UNL1        0.0658
     30 C           5.1350   -1.0950    0.0000 C.3     1  UNL1        0.1880
     31 C           9.4651    1.4050    0.0000 C.2     1  UNL1        0.0981
     32 C           5.1350   -0.0950    0.0000 C.3     1  UNL1        0.1341
     33 C           4.2690    0.4050    0.0000 C.3     1  UNL1        0.1141
     34 C           3.4030   -0.0950    0.0000 C.3     1  UNL1        0.1119
     35 C           3.4030   -1.0950    0.0000 C.3     1  UNL1        0.1130
     36 C          10.3312    2.9050    0.0000 C.2     1  UNL1        0.3381
     37 C           2.5369   -1.5950    0.0000 C.3     1  UNL1        0.0730
     38 C           9.4651    4.4050    0.0000 C.3     1  UNL1        0.0820
     39 H          11.2871   -0.4402    0.0000 H       1  UNL1        0.0413
     40 H          11.2871    2.2502    0.0000 H       1  UNL1        0.0363
     41 H           9.7942   -0.4050    0.0000 H       1  UNL1        0.1062
     42 H          12.6808    2.0190    0.0000 H       1  UNL1        0.0313
     43 H          11.8924    2.2766    0.0000 H       1  UNL1        0.0313
     44 H          10.0021   -1.9050    0.0000 H       1  UNL1        0.0939
     45 H           7.7331   -0.9750    0.0000 H       1  UNL1        0.0647
     46 H           9.4651   -3.2150    0.0000 H       1  UNL1        0.0671
     47 H           7.7331   -3.2150    0.0000 H       1  UNL1        0.0647
     48 H           9.1360   -3.4050    0.0000 H       1  UNL1        0.0648
     49 H          13.3470    0.9050    0.0000 H       1  UNL1        0.0573
     50 H           7.2656   -0.6201    0.0000 H       1  UNL1        0.0587
     51 H           6.4685   -0.6201    0.0000 H       1  UNL1        0.0587
     52 H           5.6720   -0.7850    0.0000 H       1  UNL1        0.0937
     53 H          11.8403   -0.9376    0.0000 H       1  UNL1        0.0604
     54 H          12.4335   -1.4699    0.0000 H       1  UNL1        0.0604
     55 H           5.1350    0.5250    0.0000 H       1  UNL1        0.0671
     56 H           8.9282    1.7150    0.0000 H       1  UNL1        0.1029
     57 H           3.7320    0.7150    0.0000 H       1  UNL1        0.0648
     58 H           3.9650    0.5250    0.0000 H       1  UNL1        0.0647
     59 H           3.4030   -1.7150    0.0000 H       1  UNL1        0.0647
     60 H          10.3312   -3.7150    0.0000 H       1  UNL1        0.2101
     61 H           6.8671   -3.7150    0.0000 H       1  UNL1        0.2100
     62 H           8.0622   -4.4050    0.0000 H       1  UNL1        0.2100
     63 H           2.3249   -1.0124    0.0000 H       1  UNL1        0.0584
     64 H           1.9264   -1.7027    0.0000 H       1  UNL1        0.0584
     65 H           6.0010    1.0250    0.0000 H       1  UNL1        0.2101
     66 H          13.6252   -1.6458    0.0000 H       1  UNL1        0.2098
     67 H           3.7320    1.7150    0.0000 H       1  UNL1        0.2100
     68 H           2.0000    0.0950    0.0000 H       1  UNL1        0.2100
     69 H           2.0000   -2.9050    0.0000 H       1  UNL1        0.2095
     70 H          10.0851    4.4050    0.0000 H       1  UNL1        0.0661
     71 H           9.4651    5.0250    0.0000 H       1  UNL1        0.0661
     72 H           8.8451    4.4050    0.0000 H       1  UNL1        0.0661
@<TRIPOS>BOND
     1    18     1    1
     2    21     1    1
     3     2    21    1
     4     2    22    1
     5     3    18    1
     6     3    31    1
     7     4    28    1
     8    30     4    1
     9     5    30    1
    10     5    35    1
    11    23     6    1
    12     6    60    1
    13    24     7    1
    14     7    61    1
    15    25     8    1
    16     8    62    1
    17     9    29    1
    18     9    66    1
    19    32    10    1
    20    10    65    1
    21    33    11    1
    22    11    67    1
    23    34    12    1
    24    12    68    1
    25    13    36    1
    26    13    38    1
    27    14    36    2
    28    15    37    1
    29    15    69    1
    30    16    17    1
    31    16    18    1
    32    16    20    1
    33    16    39    1
    34    17    19    1
    35    17    27    1
    36    17    40    1
    37    18    41    1
    38    19    26    1
    39    19    42    1
    40    19    43    1
    41    20    26    2
    42    20    29    1
    43    21    23    1
    44    21    44    1
    45    22    24    1
    46    22    28    1
    47    22    45    1
    48    23    25    1
    49    23    46    1
    50    24    25    1
    51    24    47    1
    52    25    48    1
    53    26    49    1
    54    27    31    2
    55    27    36    1
    56    28    50    1
    57    28    51    1
    58    29    53    1
    59    29    54    1
    60    30    32    1
    61    30    52    1
    62    31    56    1
    63    32    33    1
    64    32    55    1
    65    33    34    1
    66    33    57    1
    67    34    35    1
    68    34    58    1
    69    35    37    1
    70    35    59    1
    71    37    63    1
    72    37    64    1
    73    38    70    1
    74    38    71    1
    75    38    72    1
