@<TRIPOS>MOLECULE
IMPHY000005
 35 36 0 0 0
SMALL
GASTEIGER

@<TRIPOS>ATOM
      1 S           2.3090    1.0304    0.0000 S.2     1  UNL1       -0.0273
      2 O           4.0778    3.5620    0.0000 O.3     1  UNL1       -0.3947
      3 N           2.8090   -0.5084    0.0000 N.ar    1  UNL1       -0.1903
      4 N           4.5411   -3.5084    0.0000 N.ar    1  UNL1       -0.2176
      5 N           5.4071   -2.0084    0.0000 N.ar    1  UNL1       -0.2400
      6 N           2.8090   -3.5084    0.0000 N.pl3   1  UNL1       -0.3427
      7 C           3.6180    0.0794    0.0000 C.ar    1  UNL1        0.1915
      8 C           2.8090   -1.5084    0.0000 C.3     1  UNL1        0.1811
      9 C           3.3090    1.0304    0.0000 C.ar    1  UNL1        0.0636
     10 C           3.8968    1.8394    0.0000 C.3     1  UNL1        0.0079
     11 C           3.6750   -2.0084    0.0000 C.ar    1  UNL1        0.0747
     12 C           2.0000    0.0794    0.0000 C.ar    1  UNL1        0.2109
     13 C           4.5691   -0.2296    0.0000 C.3     1  UNL1        0.0216
     14 C           3.4901    2.7530    0.0000 C.3     1  UNL1        0.0489
     15 C           3.6750   -3.0084    0.0000 C.ar    1  UNL1        0.1289
     16 C           4.5411   -1.5084    0.0000 C.ar    1  UNL1        0.0421
     17 C           5.4071   -3.0084    0.0000 C.ar    1  UNL1        0.1280
     18 C           6.2731   -3.5084    0.0000 C.3     1  UNL1       -0.0046
     19 H           2.1984   -1.4008    0.0000 H       1  UNL1        0.1087
     20 H           2.5970   -2.0910    0.0000 H       1  UNL1        0.1087
     21 H           4.3275    1.3935    0.0000 H       1  UNL1        0.0343
     22 H           4.4108    2.1862    0.0000 H       1  UNL1        0.0343
     23 H           1.4103   -0.1122    0.0000 H       1  UNL1        0.1462
     24 H           4.3775   -0.8193    0.0000 H       1  UNL1        0.0336
     25 H           5.1588   -0.4212    0.0000 H       1  UNL1        0.0336
     26 H           4.7607    0.3600    0.0000 H       1  UNL1        0.0336
     27 H           3.0594    3.1990    0.0000 H       1  UNL1        0.0560
     28 H           2.9761    2.4063    0.0000 H       1  UNL1        0.0560
     29 H           4.5411   -0.8884    0.0000 H       1  UNL1        0.0836
     30 H           2.8090   -4.1284    0.0000 H       1  UNL1        0.1437
     31 H           2.2721   -3.1984    0.0000 H       1  UNL1        0.1437
     32 H           3.8257    4.1284    0.0000 H       1  UNL1        0.2094
     33 H           5.9631   -4.0454    0.0000 H       1  UNL1        0.0308
     34 H           6.8100   -3.8184    0.0000 H       1  UNL1        0.0308
     35 H           6.5831   -2.9715    0.0000 H       1  UNL1        0.0308
@<TRIPOS>UNITY_ATOM_ATTR
3 1
charge 1
@<TRIPOS>BOND
     1     1     9   ar
     2     1    12   ar
     3     2    14    1
     4     2    32    1
     5     3     7   ar
     6     3     8    1
     7     3    12   ar
     8     4    15   ar
     9     4    17   ar
    10     5    16   ar
    11     5    17   ar
    12     6    15    1
    13     6    30    1
    14     6    31    1
    15     7     9   ar
    16     7    13    1
    17     8    11    1
    18     8    19    1
    19     8    20    1
    20     9    10    1
    21    10    14    1
    22    10    21    1
    23    10    22    1
    24    11    15   ar
    25    11    16   ar
    26    12    23    1
    27    13    24    1
    28    13    25    1
    29    13    26    1
    30    14    27    1
    31    14    28    1
    32    16    29    1
    33    17    18    1
    34    18    33    1
    35    18    34    1
    36    18    35    1
