@<TRIPOS>MOLECULE
IMPHY000430
 100 105 0 0 0
SMALL
GASTEIGER

@<TRIPOS>ATOM
      1 O           4.9836   -0.4875    0.0000 O.3     1  UNL1       -0.3886
      2 O           4.9998    1.6041    0.0000 O.3     1  UNL1       -0.3892
      3 O           6.7979   -2.2654    0.0000 O.3     1  UNL1       -0.4609
      4 O          13.9087    2.5990    0.0000 O.3     1  UNL1       -0.4802
      5 O          13.0543    1.0924    0.0000 O.2     1  UNL1       -0.2504
      6 O           5.3012   -3.1372    0.0000 O.2     1  UNL1       -0.2456
      7 O           2.3079   -4.8808    0.0000 O.3     1  UNL1       -0.5068
      8 C           9.5107    1.0648    0.0000 C.3     1  UNL1       -0.0194
      9 C           8.6447    1.5648    0.0000 C.3     1  UNL1       -0.0257
     10 C           7.7347    1.0580    0.0000 C.3     1  UNL1       -0.0225
     11 C          10.3767    1.5648    0.0000 C.3     1  UNL1       -0.0051
     12 C           7.7266    0.0164    0.0000 C.3     1  UNL1       -0.0243
     13 C           9.5267    0.0233    0.0000 C.3     1  UNL1       -0.0463
     14 C           6.7912   -0.5334    0.0000 C.3     1  UNL1        0.0337
     15 C           8.6287   -0.5044    0.0000 C.3     1  UNL1       -0.0485
     16 C          10.3767    2.5648    0.0000 C.2     1  UNL1       -0.0626
     17 C          11.2707    3.0995    0.0000 C.3     1  UNL1       -0.0008
     18 C           8.6447    2.5648    0.0000 C.3     1  UNL1       -0.0306
     19 C           6.8078    1.6220    0.0000 C.3     1  UNL1       -0.0184
     20 C          11.2707    1.0301    0.0000 C.3     1  UNL1       -0.0424
     21 C          12.1767    2.5856    0.0000 C.3     1  UNL1        0.0743
     22 C          10.1535    0.2988    0.0000 C.3     1  UNL1       -0.0585
     23 C          12.1767    1.5440    0.0000 C.3     1  UNL1       -0.0359
     24 C           5.8516    0.0091    0.0000 C.3     1  UNL1        0.0898
     25 C           5.8599    1.0941    0.0000 C.3     1  UNL1        0.0822
     26 C           9.5107    3.0648    0.0000 C.2     1  UNL1       -0.0836
     27 C           7.7424    2.0579    0.0000 C.3     1  UNL1       -0.0589
     28 C          10.7188    0.6252    0.0000 C.3     1  UNL1       -0.0553
     29 C          11.2456    4.1842    0.0000 C.3     1  UNL1       -0.0337
     30 C          13.1205    3.1209    0.0000 C.3     1  UNL1       -0.0364
     31 C          12.1767    4.7411    0.0000 C.3     1  UNL1       -0.0407
     32 C           6.2946   -1.4013    0.0000 C.3     1  UNL1        0.1008
     33 C           7.2945   -1.3974    0.0000 C.3     1  UNL1       -0.0537
     34 C          13.1205    4.2059    0.0000 C.3     1  UNL1       -0.0492
     35 C          13.0466    2.0923    0.0000 C.2     1  UNL1        0.3115
     36 C          10.3701    4.6674    0.0000 C.3     1  UNL1       -0.0616
     37 C          12.1652    5.7410    0.0000 C.3     1  UNL1       -0.0622
     38 C           6.3012   -3.1333    0.0000 C.2     1  UNL1        0.3320
     39 C           6.8046   -3.9974    0.0000 C.2     1  UNL1        0.0231
     40 C           6.3079   -4.8654    0.0000 C.2     1  UNL1       -0.0478
     41 C           5.3079   -4.8692    0.0000 C.ar    1  UNL1       -0.0246
     42 C           4.8046   -4.0051    0.0000 C.ar    1  UNL1       -0.0511
     43 C           4.8112   -5.7372    0.0000 C.ar    1  UNL1       -0.0511
     44 C           3.8046   -4.0090    0.0000 C.ar    1  UNL1       -0.0196
     45 C           3.8112   -5.7410    0.0000 C.ar    1  UNL1       -0.0196
     46 C           3.3079   -4.8769    0.0000 C.ar    1  UNL1        0.1169
     47 H           9.3808    1.9898    0.0000 H       1  UNL1        0.0315
     48 H           7.7299   -0.8336    0.0000 H       1  UNL1        0.0313
     49 H           9.7448   -0.5571    0.0000 H       1  UNL1        0.0271
     50 H          10.1359    0.1388    0.0000 H       1  UNL1        0.0271
     51 H           8.2314   -0.9804    0.0000 H       1  UNL1        0.0268
     52 H           9.0297   -0.9773    0.0000 H       1  UNL1        0.0268
     53 H          10.5265    3.5102    0.0000 H       1  UNL1        0.0359
     54 H           8.4326    3.1474    0.0000 H       1  UNL1        0.0310
     55 H           8.0341    2.4572    0.0000 H       1  UNL1        0.0310
     56 H           7.2160    2.0887    0.0000 H       1  UNL1        0.0296
     57 H           6.4179    2.1041    0.0000 H       1  UNL1        0.0296
     58 H          10.8661    0.5604    0.0000 H       1  UNL1        0.0274
     59 H          11.6643    0.5511    0.0000 H       1  UNL1        0.0274
     60 H           9.6785   -0.0998    0.0000 H       1  UNL1        0.0235
     61 H          10.5520   -0.1762    0.0000 H       1  UNL1        0.0235
     62 H          10.6284    0.6973    0.0000 H       1  UNL1        0.0235
     63 H          12.3858    0.9603    0.0000 H       1  UNL1        0.0276
     64 H          12.7876    1.6501    0.0000 H       1  UNL1        0.0276
     65 H           5.3164    0.3222    0.0000 H       1  UNL1        0.0626
     66 H           5.8683    1.7140    0.0000 H       1  UNL1        0.0619
     67 H           9.5107    3.6848    0.0000 H       1  UNL1        0.0572
     68 H           8.3624    2.0532    0.0000 H       1  UNL1        0.0235
     69 H           7.7472    2.6779    0.0000 H       1  UNL1        0.0235
     70 H           7.1224    2.0627    0.0000 H       1  UNL1        0.0235
     71 H          10.1362    0.4130    0.0000 H       1  UNL1        0.0238
     72 H          10.9309    0.0426    0.0000 H       1  UNL1        0.0238
     73 H          11.3014    0.8373    0.0000 H       1  UNL1        0.0238
     74 H          11.2348    4.8041    0.0000 H       1  UNL1        0.0307
     75 H          13.3296    2.5372    0.0000 H       1  UNL1        0.0276
     76 H          13.7314    3.2270    0.0000 H       1  UNL1        0.0276
     77 H          11.6356    5.0438    0.0000 H       1  UNL1        0.0301
     78 H           5.8181   -1.0046    0.0000 H       1  UNL1        0.0704
     79 H           5.8211   -1.8017    0.0000 H       1  UNL1        0.0704
     80 H           6.7588   -1.7095    0.0000 H       1  UNL1        0.0237
     81 H           7.6066   -1.9332    0.0000 H       1  UNL1        0.0237
     82 H           7.8303   -1.0854    0.0000 H       1  UNL1        0.0237
     83 H          13.7314    4.0998    0.0000 H       1  UNL1        0.0268
     84 H          13.3296    4.7896    0.0000 H       1  UNL1        0.0268
     85 H          10.6697    5.2102    0.0000 H       1  UNL1        0.0233
     86 H           9.8272    4.9670    0.0000 H       1  UNL1        0.0233
     87 H          10.0705    4.1246    0.0000 H       1  UNL1        0.0233
     88 H           4.4479   -0.1754    0.0000 H       1  UNL1        0.2099
     89 H           5.0069    2.2240    0.0000 H       1  UNL1        0.2099
     90 H          12.7851    5.7482    0.0000 H       1  UNL1        0.0233
     91 H          12.1580    6.3610    0.0000 H       1  UNL1        0.0233
     92 H          11.5452    5.7339    0.0000 H       1  UNL1        0.0233
     93 H          14.4480    2.2931    0.0000 H       1  UNL1        0.2951
     94 H           7.4246   -3.9950    0.0000 H       1  UNL1        0.0689
     95 H           6.6200   -5.4011    0.0000 H       1  UNL1        0.0626
     96 H           5.1125   -3.4670    0.0000 H       1  UNL1        0.0625
     97 H           5.1233   -6.2729    0.0000 H       1  UNL1        0.0625
     98 H           3.4925   -3.4733    0.0000 H       1  UNL1        0.0654
     99 H           3.5033   -6.2792    0.0000 H       1  UNL1        0.0654
    100 H           2.0000   -5.4189    0.0000 H       1  UNL1        0.2921
@<TRIPOS>BOND
     1    24     1    1
     2     1    88    1
     3    25     2    1
     4     2    89    1
     5     3    32    1
     6     3    38    1
     7     4    35    1
     8     4    93    1
     9     5    35    2
    10     6    38    2
    11     7    46    1
    12     7   100    1
    13     8     9    1
    14     8    11    1
    15     8    13    1
    16     8    22    1
    17     9    10    1
    18     9    18    1
    19     9    47    1
    20    10    12    1
    21    10    19    1
    22    10    27    1
    23    11    16    1
    24    11    20    1
    25    11    28    1
    26    12    14    1
    27    12    15    1
    28    12    48    1
    29    13    15    1
    30    13    49    1
    31    13    50    1
    32    14    24    1
    33    14    32    1
    34    14    33    1
    35    15    51    1
    36    15    52    1
    37    16    17    1
    38    16    26    2
    39    17    21    1
    40    17    29    1
    41    17    53    1
    42    18    26    1
    43    18    54    1
    44    18    55    1
    45    19    25    1
    46    19    56    1
    47    19    57    1
    48    20    23    1
    49    20    58    1
    50    20    59    1
    51    21    23    1
    52    21    30    1
    53    21    35    1
    54    22    60    1
    55    22    61    1
    56    22    62    1
    57    23    63    1
    58    23    64    1
    59    24    25    1
    60    24    65    1
    61    25    66    1
    62    26    67    1
    63    27    68    1
    64    27    69    1
    65    27    70    1
    66    28    71    1
    67    28    72    1
    68    28    73    1
    69    29    31    1
    70    29    36    1
    71    29    74    1
    72    30    34    1
    73    30    75    1
    74    30    76    1
    75    31    34    1
    76    31    37    1
    77    31    77    1
    78    32    78    1
    79    32    79    1
    80    33    80    1
    81    33    81    1
    82    33    82    1
    83    34    83    1
    84    34    84    1
    85    36    85    1
    86    36    86    1
    87    36    87    1
    88    37    90    1
    89    37    91    1
    90    37    92    1
    91    38    39    1
    92    39    40    2
    93    39    94    1
    94    40    41    1
    95    40    95    1
    96    41    42   ar
    97    41    43   ar
    98    42    44   ar
    99    42    96    1
   100    43    45   ar
   101    43    97    1
   102    44    46   ar
   103    44    98    1
   104    45    46   ar
   105    45    99    1
