@<TRIPOS>MOLECULE
IMPHY008037
 44 46 0 0 0
SMALL
GASTEIGER

@<TRIPOS>ATOM
      1 O           4.1938    2.2673    0.0000 O.3     1  UNL1       -0.3419
      2 O           3.1983    2.2506    0.0000 O.3     1  UNL1       -0.3640
      3 O           1.8996   -1.3145    0.0000 O.3     1  UNL1       -0.3863
      4 C           5.4307    0.6665    0.0000 C.3     1  UNL1        0.0273
      5 C           5.0887   -0.2732    0.0000 C.3     1  UNL1        0.0014
      6 C           3.4572    1.2847    0.0000 C.3     1  UNL1        0.1734
      7 C           3.7160    0.3188    0.0000 C.3     1  UNL1        0.0940
      8 C           5.8736   -0.8832    0.0000 C.3     1  UNL1       -0.0327
      9 C           6.4241    0.6292    0.0000 C.3     1  UNL1       -0.0421
     10 C           6.6973   -0.3266    0.0000 C.3     1  UNL1       -0.0490
     11 C           2.4443   -0.4758    0.0000 C.3     1  UNL1        0.0898
     12 C           2.0255    1.0870    0.0000 C.3     1  UNL1        0.0044
     13 C           1.6672    0.1535    0.0000 C.3     1  UNL1       -0.0169
     14 C           5.7727    1.6062    0.0000 C.3     1  UNL1       -0.0543
     15 C           5.8404   -1.8827    0.0000 C.3     1  UNL1       -0.0435
     16 C           2.8983   -1.3668    0.0000 C.3     1  UNL1       -0.0336
     17 C           6.6894   -2.4111    0.0000 C.3     1  UNL1       -0.0624
     18 C           4.9583   -2.3537    0.0000 C.3     1  UNL1       -0.0624
     19 H           4.7980   -1.0720    0.0000 H       1  UNL1        0.0336
     20 H           3.9360   -0.5022    0.0000 H       1  UNL1        0.0629
     21 H           6.4163   -1.1831    0.0000 H       1  UNL1        0.0307
     22 H           6.3821    1.2478    0.0000 H       1  UNL1        0.0272
     23 H           7.0348    0.7360    0.0000 H       1  UNL1        0.0272
     24 H           7.2722   -0.0945    0.0000 H       1  UNL1        0.0268
     25 H           6.9885   -0.8740    0.0000 H       1  UNL1        0.0268
     26 H           1.4177    1.2094    0.0000 H       1  UNL1        0.0318
     27 H           2.0446    1.7068    0.0000 H       1  UNL1        0.0318
     28 H           1.3295   -0.3665    0.0000 H       1  UNL1        0.0295
     29 H           1.1147    0.4349    0.0000 H       1  UNL1        0.0295
     30 H           5.1901    1.8182    0.0000 H       1  UNL1        0.0237
     31 H           5.9848    2.1888    0.0000 H       1  UNL1        0.0237
     32 H           6.3553    1.3941    0.0000 H       1  UNL1        0.0237
     33 H           5.8199   -2.5023    0.0000 H       1  UNL1        0.0298
     34 H           3.4507   -1.0854    0.0000 H       1  UNL1        0.0258
     35 H           3.1798   -1.9193    0.0000 H       1  UNL1        0.0258
     36 H           2.3459   -1.6483    0.0000 H       1  UNL1        0.0258
     37 H           2.5995    2.4111    0.0000 H       1  UNL1        0.2128
     38 H           7.0170   -1.8848    0.0000 H       1  UNL1        0.0232
     39 H           7.2158   -2.7388    0.0000 H       1  UNL1        0.0232
     40 H           6.3618   -2.9375    0.0000 H       1  UNL1        0.0232
     41 H           5.2503   -2.9006    0.0000 H       1  UNL1        0.0232
     42 H           4.4114   -2.6457    0.0000 H       1  UNL1        0.0232
     43 H           4.6663   -1.8067    0.0000 H       1  UNL1        0.0232
     44 H           1.2805   -1.2821    0.0000 H       1  UNL1        0.2103
@<TRIPOS>BOND
     1     1     6    1
     2     1     7    1
     3     6     2    1
     4     2    37    1
     5    11     3    1
     6     3    44    1
     7     4     5    1
     8     4     6    1
     9     4     9    1
    10     4    14    1
    11     5     7    1
    12     5     8    1
    13     5    19    1
    14     6    12    1
    15     7    11    1
    16     7    20    1
    17     8    10    1
    18     8    15    1
    19     8    21    1
    20     9    10    1
    21     9    22    1
    22     9    23    1
    23    10    24    1
    24    10    25    1
    25    11    13    1
    26    11    16    1
    27    12    13    1
    28    12    26    1
    29    12    27    1
    30    13    28    1
    31    13    29    1
    32    14    30    1
    33    14    31    1
    34    14    32    1
    35    15    17    1
    36    15    18    1
    37    15    33    1
    38    16    34    1
    39    16    35    1
    40    16    36    1
    41    17    38    1
    42    17    39    1
    43    17    40    1
    44    18    41    1
    45    18    42    1
    46    18    43    1
