@<TRIPOS>MOLECULE
IMPHY017441
 21 20 0 0 0
SMALL
GASTEIGER

@<TRIPOS>ATOM
      1 O           2.5369    1.0000    0.0000 O.3     1  UNL1       -0.3913
      2 O           6.0010    1.0000    0.0000 O.3     1  UNL1       -0.4679
      3 O           5.1350   -0.5000    0.0000 O.2     1  UNL1       -0.2508
      4 C           3.4030    0.5000    0.0000 C.3     1  UNL1        0.0650
      5 C           3.4030   -0.5000    0.0000 C.3     1  UNL1       -0.0292
      6 C           4.2690    1.0000    0.0000 C.3     1  UNL1        0.0708
      7 C           2.5369   -1.0000    0.0000 C.3     1  UNL1       -0.0629
      8 C           5.1350    0.5000    0.0000 C.2     1  UNL1        0.3093
      9 C           6.8671    0.5000    0.0000 C.3     1  UNL1        0.0817
     10 H           3.4030    1.1200    0.0000 H       1  UNL1        0.0598
     11 H           3.6150   -1.0826    0.0000 H       1  UNL1        0.0287
     12 H           4.0135   -0.3923    0.0000 H       1  UNL1        0.0287
     13 H           4.6675    1.4750    0.0000 H       1  UNL1        0.0403
     14 H           3.8705    1.4750    0.0000 H       1  UNL1        0.0403
     15 H           2.2269   -0.4631    0.0000 H       1  UNL1        0.0231
     16 H           2.0000   -1.3100    0.0000 H       1  UNL1        0.0231
     17 H           2.8469   -1.5369    0.0000 H       1  UNL1        0.0231
     18 H           2.0000    0.6900    0.0000 H       1  UNL1        0.2098
     19 H           6.5571   -0.0369    0.0000 H       1  UNL1        0.0661
     20 H           7.4040    0.1900    0.0000 H       1  UNL1        0.0661
     21 H           7.1771    1.0369    0.0000 H       1  UNL1        0.0661
@<TRIPOS>BOND
     1     1     4    1
     2     1    18    1
     3     2     8    1
     4     2     9    1
     5     3     8    2
     6     4     5    1
     7     4     6    1
     8     4    10    1
     9     5     7    1
    10     5    11    1
    11     5    12    1
    12     6     8    1
    13     6    13    1
    14     6    14    1
    15     7    15    1
    16     7    16    1
    17     7    17    1
    18     9    19    1
    19     9    20    1
    20     9    21    1
