@<TRIPOS>MOLECULE
IMPHY015798
 43 43 0 0 0
SMALL
GASTEIGER

@<TRIPOS>ATOM
      1 O           5.1350   -0.7500    0.0000 O.3     1  UNL1       -0.4506
      2 O           3.4030   -0.7500    0.0000 O.2     1  UNL1       -0.2449
      3 N           2.5369   -2.2500    0.0000 N.pl3   1  UNL1       -0.3573
      4 C           5.1350    0.2500    0.0000 C.3     1  UNL1        0.1292
      5 C           5.1350    1.2500    0.0000 C.3     1  UNL1       -0.0059
      6 C           6.0010    1.7500    0.0000 C.3     1  UNL1       -0.0306
      7 C           4.1350    0.2500    0.0000 C.3     1  UNL1       -0.0211
      8 C           6.1350    0.2500    0.0000 C.2     1  UNL1       -0.0483
      9 C           6.0010    2.7500    0.0000 C.2     1  UNL1       -0.0851
     10 C           6.8671    3.2500    0.0000 C.2     1  UNL1       -0.0796
     11 C           4.2690   -1.2500    0.0000 C.2     1  UNL1        0.3418
     12 C           6.6350   -0.6160    0.0000 C.2     1  UNL1       -0.0989
     13 C           4.2690   -2.2500    0.0000 C.ar    1  UNL1        0.0796
     14 C           6.8671    4.2500    0.0000 C.3     1  UNL1       -0.0440
     15 C           7.7331    2.7500    0.0000 C.3     1  UNL1       -0.0440
     16 C           3.4030   -2.7500    0.0000 C.ar    1  UNL1        0.0387
     17 C           5.1350   -2.7500    0.0000 C.ar    1  UNL1       -0.0460
     18 C           3.4030   -3.7500    0.0000 C.ar    1  UNL1       -0.0402
     19 C           5.1350   -3.7500    0.0000 C.ar    1  UNL1       -0.0609
     20 C           4.2690   -4.2500    0.0000 C.ar    1  UNL1       -0.0600
     21 H           4.9230    1.8326    0.0000 H       1  UNL1        0.0310
     22 H           4.5244    1.1423    0.0000 H       1  UNL1        0.0310
     23 H           6.2131    1.1674    0.0000 H       1  UNL1        0.0309
     24 H           6.6116    1.8577    0.0000 H       1  UNL1        0.0309
     25 H           4.1350    0.8700    0.0000 H       1  UNL1        0.0271
     26 H           3.5150    0.2500    0.0000 H       1  UNL1        0.0271
     27 H           4.1350   -0.3700    0.0000 H       1  UNL1        0.0271
     28 H           6.4450    0.7869    0.0000 H       1  UNL1        0.0605
     29 H           5.4641    3.0600    0.0000 H       1  UNL1        0.0571
     30 H           6.3250   -1.1530    0.0000 H       1  UNL1        0.0533
     31 H           7.2550   -0.6160    0.0000 H       1  UNL1        0.0533
     32 H           7.4871    4.2500    0.0000 H       1  UNL1        0.0274
     33 H           6.8671    4.8700    0.0000 H       1  UNL1        0.0274
     34 H           6.2471    4.2500    0.0000 H       1  UNL1        0.0274
     35 H           7.4231    2.2131    0.0000 H       1  UNL1        0.0274
     36 H           8.2700    2.4400    0.0000 H       1  UNL1        0.0274
     37 H           8.0431    3.2869    0.0000 H       1  UNL1        0.0274
     38 H           5.6720   -2.4400    0.0000 H       1  UNL1        0.0626
     39 H           2.8660   -4.0600    0.0000 H       1  UNL1        0.0636
     40 H           5.6720   -4.0600    0.0000 H       1  UNL1        0.0618
     41 H           4.2690   -4.8700    0.0000 H       1  UNL1        0.0618
     42 H           2.0000   -2.5600    0.0000 H       1  UNL1        0.1423
     43 H           2.5369   -1.6300    0.0000 H       1  UNL1        0.1423
@<TRIPOS>BOND
     1     1     4    1
     2     1    11    1
     3     2    11    2
     4     3    16    1
     5     3    42    1
     6     3    43    1
     7     4     5    1
     8     4     7    1
     9     4     8    1
    10     5     6    1
    11     5    21    1
    12     5    22    1
    13     6     9    1
    14     6    23    1
    15     6    24    1
    16     7    25    1
    17     7    26    1
    18     7    27    1
    19     8    12    2
    20     8    28    1
    21     9    10    2
    22     9    29    1
    23    10    14    1
    24    10    15    1
    25    11    13    1
    26    12    30    1
    27    12    31    1
    28    13    16   ar
    29    13    17   ar
    30    14    32    1
    31    14    33    1
    32    14    34    1
    33    15    35    1
    34    15    36    1
    35    15    37    1
    36    16    18   ar
    37    17    19   ar
    38    17    38    1
    39    18    20   ar
    40    18    39    1
    41    19    20   ar
    42    19    40    1
    43    20    41    1
