@<TRIPOS>MOLECULE
IMPHY008512
 33 37 0 0 0
SMALL
GASTEIGER

@<TRIPOS>ATOM
      1 O           4.3798   -0.0145    0.0000 O.2     1  UNL1       -0.4583
      2 O           2.5836   -1.2513    0.0000 O.3     1  UNL1       -0.4489
      3 O           2.5836   -2.8607    0.0000 O.3     1  UNL1       -0.4525
      4 O           8.1326    2.9568    0.0000 O.3     1  UNL1       -0.4526
      5 O           9.5233    2.1467    0.0000 O.3     1  UNL1       -0.4526
      6 O           7.0321   -1.5591    0.0000 O.2     1  UNL1       -0.2864
      7 C           5.2619   -1.5560    0.0000 C.ar    1  UNL1        0.0684
      8 C           4.3958   -1.0560    0.0000 C.ar    1  UNL1        0.1836
      9 C           6.1799   -0.0076    0.0000 C.ar    1  UNL1        0.0644
     10 C           3.5298   -1.5560    0.0000 C.ar    1  UNL1        0.2088
     11 C           7.0479    0.4891    0.0000 C.ar    1  UNL1       -0.0076
     12 C           6.1719   -1.0492    0.0000 C.ar    1  UNL1        0.2003
     13 C           3.5298   -2.5560    0.0000 C.ar    1  UNL1        0.1700
     14 C           5.2619   -2.5560    0.0000 C.ar    1  UNL1       -0.0437
     15 C           7.0517    1.4891    0.0000 C.ar    1  UNL1       -0.0082
     16 C           7.9197    1.9858    0.0000 C.ar    1  UNL1        0.1668
     17 C           4.3958   -3.0560    0.0000 C.ar    1  UNL1       -0.0152
     18 C           5.2778    0.5133    0.0000 C.ar    1  UNL1        0.1040
     19 C           8.7838    1.4824    0.0000 C.ar    1  UNL1        0.1663
     20 C           7.9120   -0.0142    0.0000 C.ar    1  UNL1       -0.0501
     21 C           2.0000   -2.0560    0.0000 C.3     1  UNL1        0.2334
     22 C           8.7799    0.4824    0.0000 C.ar    1  UNL1       -0.0156
     23 C           9.1217    3.0560    0.0000 C.3     1  UNL1        0.2332
     24 H           5.7988   -2.8660    0.0000 H       1  UNL1        0.0627
     25 H           6.5160    1.8012    0.0000 H       1  UNL1        0.0661
     26 H           4.3958   -3.6760    0.0000 H       1  UNL1        0.0655
     27 H           5.2754    1.1333    0.0000 H       1  UNL1        0.1037
     28 H           7.9096   -0.6342    0.0000 H       1  UNL1        0.0625
     29 H           1.5391   -1.6413    0.0000 H       1  UNL1        0.1166
     30 H           1.5391   -2.4707    0.0000 H       1  UNL1        0.1166
     31 H           9.3156    0.1704    0.0000 H       1  UNL1        0.0655
     32 H           9.7120    3.2455    0.0000 H       1  UNL1        0.1166
     33 H           8.9953    3.6630    0.0000 H       1  UNL1        0.1166
@<TRIPOS>BOND
     1     1     8   ar
     2     1    18   ar
     3     2    10    1
     4     2    21    1
     5     3    13    1
     6     3    21    1
     7     4    16    1
     8     4    23    1
     9     5    19    1
    10     5    23    1
    11     6    12    2
    12     7     8   ar
    13     7    12   ar
    14     7    14   ar
    15     8    10   ar
    16     9    11    1
    17     9    12   ar
    18     9    18   ar
    19    10    13   ar
    20    11    15   ar
    21    11    20   ar
    22    13    17   ar
    23    14    17   ar
    24    14    24    1
    25    15    16   ar
    26    15    25    1
    27    16    19   ar
    28    17    26    1
    29    18    27    1
    30    19    22   ar
    31    20    22   ar
    32    20    28    1
    33    21    29    1
    34    21    30    1
    35    22    31    1
    36    23    32    1
    37    23    33    1
