@<TRIPOS>MOLECULE
IMPHY008460
 50 55 0 0 0
SMALL
GASTEIGER

@<TRIPOS>ATOM
      1 O           6.5254   -1.2378    0.0000 O.3     1  UNL1       -0.3595
      2 O           4.7928    1.7630    0.0000 O.3     1  UNL1       -0.3231
      3 O           5.8683    2.2344    0.0000 O.3     1  UNL1       -0.4222
      4 O           7.3570    3.2035    0.0000 O.2     1  UNL1       -0.2452
      5 C           5.6591   -0.7374    0.0000 C.3     1  UNL1        0.1063
      6 C           4.7931   -0.2374    0.0000 C.3     1  UNL1        0.0295
      7 C           3.8831   -0.7442    0.0000 C.3     1  UNL1       -0.0206
      8 C           4.7931    0.7626    0.0000 C.3     1  UNL1        0.1389
      9 C           6.5251   -0.2374    0.0000 C.3     1  UNL1        0.1166
     10 C           5.6591    1.2626    0.0000 C.3     1  UNL1        0.2691
     11 C           3.8751   -1.7858    0.0000 C.3     1  UNL1       -0.0300
     12 C           5.6752   -1.7789    0.0000 C.3     1  UNL1       -0.0203
     13 C           6.5251    0.7626    0.0000 C.2     1  UNL1        0.0447
     14 C           4.7771   -2.3066    0.0000 C.3     1  UNL1       -0.0465
     15 C           2.9396   -2.3356    0.0000 C.3     1  UNL1       -0.0315
     16 C           2.9562   -0.1802    0.0000 C.3     1  UNL1       -0.0469
     17 C           3.8908    0.2557    0.0000 C.3     1  UNL1       -0.0589
     18 C           2.0000   -1.7931    0.0000 C.3     1  UNL1       -0.0476
     19 C           2.0084   -0.7081    0.0000 C.3     1  UNL1       -0.0521
     20 C           7.2622    1.4297    0.0000 C.2     1  UNL1        0.0416
     21 C           2.4430   -3.2035    0.0000 C.3     1  UNL1       -0.0595
     22 C           3.4430   -3.1996    0.0000 C.3     1  UNL1       -0.0595
     23 C           6.8570    2.3375    0.0000 C.2     1  UNL1        0.3378
     24 C           8.2407    1.2235    0.0000 C.3     1  UNL1       -0.0327
     25 H           5.5292    0.1876    0.0000 H       1  UNL1        0.0362
     26 H           3.9431    0.7625    0.0000 H       1  UNL1        0.0671
     27 H           7.3751   -0.2373    0.0000 H       1  UNL1        0.0675
     28 H           3.8783   -2.6358    0.0000 H       1  UNL1        0.0311
     29 H           5.8932   -2.3593    0.0000 H       1  UNL1        0.0294
     30 H           6.2843   -1.6634    0.0000 H       1  UNL1        0.0294
     31 H           4.3798   -2.7826    0.0000 H       1  UNL1        0.0269
     32 H           5.1781   -2.7795    0.0000 H       1  UNL1        0.0269
     33 H           3.3645    0.2865    0.0000 H       1  UNL1        0.0271
     34 H           2.5663    0.3019    0.0000 H       1  UNL1        0.0271
     35 H           4.5108    0.2510    0.0000 H       1  UNL1        0.0235
     36 H           3.8956    0.8757    0.0000 H       1  UNL1        0.0235
     37 H           3.2708    0.2605    0.0000 H       1  UNL1        0.0235
     38 H           1.3900   -1.6823    0.0000 H       1  UNL1        0.0271
     39 H           1.7864   -2.3751    0.0000 H       1  UNL1        0.0271
     40 H           1.8038   -0.1228    0.0000 H       1  UNL1        0.0266
     41 H           1.3967   -0.8095    0.0000 H       1  UNL1        0.0266
     42 H           1.9048   -2.8956    0.0000 H       1  UNL1        0.0235
     43 H           2.1350   -3.7416    0.0000 H       1  UNL1        0.0235
     44 H           2.9811   -3.5114    0.0000 H       1  UNL1        0.0235
     45 H           2.9072   -3.5117    0.0000 H       1  UNL1        0.0235
     46 H           3.7550   -3.7354    0.0000 H       1  UNL1        0.0235
     47 H           3.9787   -2.8876    0.0000 H       1  UNL1        0.0235
     48 H           8.1128    0.6168    0.0000 H       1  UNL1        0.0280
     49 H           8.8473    1.0956    0.0000 H       1  UNL1        0.0280
     50 H           8.3685    1.8302    0.0000 H       1  UNL1        0.0280
@<TRIPOS>BOND
     1     5     1    1
     2     1     9    1
     3     2     8    1
     4    10     2    1
     5     3    10    1
     6     3    23    1
     7     4    23    2
     8     5     6    1
     9     5     9    1
    10     5    12    1
    11     6     7    1
    12     6     8    1
    13     6    25    1
    14     7    11    1
    15     7    16    1
    16     7    17    1
    17     8    10    1
    18     8    26    1
    19     9    13    1
    20     9    27    1
    21    10    13    1
    22    11    14    1
    23    11    15    1
    24    11    28    1
    25    12    14    1
    26    12    29    1
    27    12    30    1
    28    13    20    2
    29    14    31    1
    30    14    32    1
    31    15    18    1
    32    15    21    1
    33    15    22    1
    34    16    19    1
    35    16    33    1
    36    16    34    1
    37    17    35    1
    38    17    36    1
    39    17    37    1
    40    18    19    1
    41    18    38    1
    42    18    39    1
    43    19    40    1
    44    19    41    1
    45    20    23    1
    46    20    24    1
    47    21    42    1
    48    21    43    1
    49    21    44    1
    50    22    45    1
    51    22    46    1
    52    22    47    1
    53    24    48    1
    54    24    49    1
    55    24    50    1
