@<TRIPOS>MOLECULE
IMPHY016715
 48 50 0 0 0
SMALL
GASTEIGER

@<TRIPOS>ATOM
      1 O           6.8323    1.1015    0.0000 O.3     1  UNL1       -0.3670
      2 O           3.3307    0.2440    0.0000 O.3     1  UNL1       -0.4611
      3 O           2.4647   -1.2560    0.0000 O.2     1  UNL1       -0.2512
      4 C           7.0755   -1.5787    0.0000 C.3     1  UNL1       -0.0089
      5 C           7.9046   -1.0195    0.0000 C.3     1  UNL1       -0.0326
      6 C           5.8545   -0.7131    0.0000 C.3     1  UNL1        0.0739
      7 C           5.5957    0.2529    0.0000 C.3     1  UNL1        0.0251
      8 C           7.6289   -0.0583    0.0000 C.3     1  UNL1       -0.0408
      9 C           8.6863   -1.6336    0.0000 C.3     1  UNL1       -0.0407
     10 C           5.9663    1.6015    0.0000 C.3     1  UNL1        0.0708
     11 C           7.3520   -2.5336    0.0000 C.3     1  UNL1       -0.0471
     12 C           4.4556   -1.2219    0.0000 C.3     1  UNL1        0.0139
     13 C           4.1967   -0.2560    0.0000 C.3     1  UNL1        0.1111
     14 C           8.3455   -2.5674    0.0000 C.3     1  UNL1       -0.0498
     15 C           5.5956   -1.6790    0.0000 C.3     1  UNL1       -0.0354
     16 C           9.6480   -1.3596    0.0000 C.3     1  UNL1       -0.0622
     17 C           6.2251    2.5674    0.0000 C.3     1  UNL1       -0.0357
     18 C           5.2592    2.3086    0.0000 C.3     1  UNL1       -0.0357
     19 C           2.4647   -0.2560    0.0000 C.2     1  UNL1        0.3042
     20 C           1.5987    0.2440    0.0000 C.3     1  UNL1        0.0332
     21 H           6.3708   -2.0540    0.0000 H       1  UNL1        0.0331
     22 H           8.6092   -0.5442    0.0000 H       1  UNL1        0.0307
     23 H           5.3757    1.0739    0.0000 H       1  UNL1        0.0364
     24 H           7.6340    0.5617    0.0000 H       1  UNL1        0.0273
     25 H           8.2432    0.0255    0.0000 H       1  UNL1        0.0273
     26 H           9.1086   -2.0876    0.0000 H       1  UNL1        0.0301
     27 H           7.3961   -3.1520    0.0000 H       1  UNL1        0.0269
     28 H           6.7416   -2.6425    0.0000 H       1  UNL1        0.0269
     29 H           4.6505   -1.8104    0.0000 H       1  UNL1        0.0329
     30 H           3.8616   -1.3997    0.0000 H       1  UNL1        0.0329
     31 H           3.7049   -0.6334    0.0000 H       1  UNL1        0.0738
     32 H           8.9471   -2.7176    0.0000 H       1  UNL1        0.0268
     33 H           8.2594   -3.1814    0.0000 H       1  UNL1        0.0268
     34 H           6.1945   -1.8395    0.0000 H       1  UNL1        0.0257
     35 H           5.4351   -2.2778    0.0000 H       1  UNL1        0.0257
     36 H           4.9967   -1.5185    0.0000 H       1  UNL1        0.0257
     37 H           9.4782   -0.7633    0.0000 H       1  UNL1        0.0233
     38 H          10.2443   -1.1898    0.0000 H       1  UNL1        0.0233
     39 H           9.8179   -1.9559    0.0000 H       1  UNL1        0.0233
     40 H           5.6262    2.7279    0.0000 H       1  UNL1        0.0257
     41 H           6.3856    3.1663    0.0000 H       1  UNL1        0.0257
     42 H           6.8240    2.4070    0.0000 H       1  UNL1        0.0257
     43 H           4.8208    1.8702    0.0000 H       1  UNL1        0.0257
     44 H           4.8208    2.7470    0.0000 H       1  UNL1        0.0257
     45 H           5.6976    2.7470    0.0000 H       1  UNL1        0.0257
     46 H           1.2887   -0.2929    0.0000 H       1  UNL1        0.0342
     47 H           1.0617    0.5540    0.0000 H       1  UNL1        0.0342
     48 H           1.9087    0.7810    0.0000 H       1  UNL1        0.0342
@<TRIPOS>BOND
     1     1     6    1
     2     1    10    1
     3    13     2    1
     4     2    19    1
     5     3    19    2
     6     4     5    1
     7     4     6    1
     8     4    11    1
     9     4    21    1
    10     5     8    1
    11     5     9    1
    12     5    22    1
    13     6    12    1
    14     6    15    1
    15     7     8    1
    16     7    10    1
    17     7    13    1
    18     7    23    1
    19     8    24    1
    20     8    25    1
    21     9    14    1
    22     9    16    1
    23     9    26    1
    24    10    17    1
    25    10    18    1
    26    11    14    1
    27    11    27    1
    28    11    28    1
    29    12    13    1
    30    12    29    1
    31    12    30    1
    32    13    31    1
    33    14    32    1
    34    14    33    1
    35    15    34    1
    36    15    35    1
    37    15    36    1
    38    16    37    1
    39    16    38    1
    40    16    39    1
    41    17    40    1
    42    17    41    1
    43    17    42    1
    44    18    43    1
    45    18    44    1
    46    18    45    1
    47    19    20    1
    48    20    46    1
    49    20    47    1
    50    20    48    1
