@<TRIPOS>MOLECULE
IMPHY008519
 108 114 0 0 0
SMALL
GASTEIGER

@<TRIPOS>ATOM
      1 O          11.2303    1.7624    0.0000 O.3     1  UNL1       -0.3877
      2 O          11.2542   -1.3134    0.0000 O.3     1  UNL1       -0.3875
      3 O           9.4651   -3.4411    0.0000 O.3     1  UNL1       -0.3453
      4 O           7.7580   -0.2791    0.0000 O.2     1  UNL1       -0.3003
      5 O           7.6262    5.2761    0.0000 O.3     1  UNL1       -0.4571
      6 O           7.7331   -3.4411    0.0000 O.3     1  UNL1       -0.3431
      7 O           8.2613    6.9411    0.0000 O.2     1  UNL1       -0.2456
      8 O           9.4651   -5.4411    0.0000 O.3     1  UNL1       -0.3721
      9 O           7.7331   -6.4411    0.0000 O.3     1  UNL1       -0.3744
     10 O           6.0010   -5.4411    0.0000 O.3     1  UNL1       -0.3402
     11 O           5.1350   -3.9411    0.0000 O.3     1  UNL1       -0.3405
     12 O           4.2690   -6.4411    0.0000 O.3     1  UNL1       -0.3841
     13 O           2.5369   -5.4411    0.0000 O.3     1  UNL1       -0.3864
     14 O           2.5369   -3.4411    0.0000 O.3     1  UNL1       -0.3865
     15 O           5.1350   -1.9411    0.0000 O.3     1  UNL1       -0.3924
     16 C          10.3623    2.2591    0.0000 C.3     1  UNL1        0.0751
     17 C          10.3662    1.2591    0.0000 C.3     1  UNL1       -0.0077
     18 C           9.4944    2.7558    0.0000 C.3     1  UNL1        0.0036
     19 C           9.5021    0.7558    0.0000 C.3     1  UNL1       -0.0208
     20 C           9.4901   -0.2858    0.0000 C.3     1  UNL1        0.0579
     21 C          10.3901   -0.8101    0.0000 C.3     1  UNL1        0.0807
     22 C           9.6999    3.7284    0.0000 C.3     1  UNL1       -0.0081
     23 C           8.6303    2.2524    0.0000 C.3     1  UNL1       -0.0442
     24 C           8.6342    1.2524    0.0000 C.3     1  UNL1       -0.0483
     25 C          11.0968    2.9290    0.0000 C.3     1  UNL1       -0.0226
     26 C          11.2781    0.7558    0.0000 C.3     1  UNL1       -0.0447
     27 C          11.2902   -0.2858    0.0000 C.3     1  UNL1       -0.0226
     28 C          10.6882    3.8352    0.0000 C.3     1  UNL1       -0.0432
     29 C           8.5402   -0.8101    0.0000 C.3     1  UNL1       -0.0357
     30 C          10.4027   -1.8950    0.0000 C.3     1  UNL1        0.0034
     31 C           8.6264    3.2524    0.0000 C.3     1  UNL1       -0.0564
     32 C           8.5276   -1.8950    0.0000 C.3     1  UNL1       -0.0254
     33 C           9.4651   -2.4411    0.0000 C.3     1  UNL1        0.0645
     34 C           8.6260    0.2175    0.0000 C.2     1  UNL1        0.1294
     35 C           9.0292    4.4701    0.0000 C.2     1  UNL1       -0.0222
     36 C           8.0348    4.3634    0.0000 C.3     1  UNL1        0.1147
     37 C           9.2350    5.4487    0.0000 C.2     1  UNL1        0.0252
     38 C           8.5991   -3.9411    0.0000 C.3     1  UNL1        0.1883
     39 C           8.3679    5.9468    0.0000 C.2     1  UNL1        0.3323
     40 C           8.5991   -4.9411    0.0000 C.3     1  UNL1        0.1374
     41 C           7.7331   -5.4411    0.0000 C.3     1  UNL1        0.1176
     42 C           6.8671   -3.9411    0.0000 C.3     1  UNL1        0.0877
     43 C           6.8671   -4.9411    0.0000 C.3     1  UNL1        0.1162
     44 C           6.0010   -3.4411    0.0000 C.3     1  UNL1       -0.0360
     45 C          10.3312   -4.9411    0.0000 C.3     1  UNL1        0.0371
     46 C           5.1350   -4.9411    0.0000 C.3     1  UNL1        0.1884
     47 C           8.5991   -6.9411    0.0000 C.3     1  UNL1        0.0370
     48 C           4.2690   -5.4411    0.0000 C.3     1  UNL1        0.1341
     49 C           3.4030   -4.9411    0.0000 C.3     1  UNL1        0.1141
     50 C           4.2690   -3.4411    0.0000 C.3     1  UNL1        0.1130
     51 C           3.4030   -3.9411    0.0000 C.3     1  UNL1        0.1119
     52 C           4.2690   -2.4411    0.0000 C.3     1  UNL1        0.0730
     53 H          11.0974    1.6926    0.0000 H       1  UNL1        0.0332
     54 H          10.2366    0.3279    0.0000 H       1  UNL1        0.0315
     55 H          10.0024    4.5227    0.0000 H       1  UNL1        0.0353
     56 H           8.4160    2.8342    0.0000 H       1  UNL1        0.0272
     57 H           8.0201    2.1424    0.0000 H       1  UNL1        0.0272
     58 H           8.0232    1.3577    0.0000 H       1  UNL1        0.0269
     59 H           8.4244    0.6690    0.0000 H       1  UNL1        0.0269
     60 H          11.4642    2.4296    0.0000 H       1  UNL1        0.0293
     61 H          11.6321    3.2418    0.0000 H       1  UNL1        0.0293
     62 H          11.8902    0.6567    0.0000 H       1  UNL1        0.0270
     63 H          11.4804    1.3418    0.0000 H       1  UNL1        0.0270
     64 H          11.5060   -0.8670    0.0000 H       1  UNL1        0.0293
     65 H          11.8998   -0.1727    0.0000 H       1  UNL1        0.0293
     66 H          11.2770    4.0293    0.0000 H       1  UNL1        0.0272
     67 H          10.5571    4.4412    0.0000 H       1  UNL1        0.0272
     68 H           8.3379   -0.2240    0.0000 H       1  UNL1        0.0276
     69 H           7.9281   -0.9091    0.0000 H       1  UNL1        0.0276
     70 H          10.6185   -2.4762    0.0000 H       1  UNL1        0.0318
     71 H          11.0123   -1.7819    0.0000 H       1  UNL1        0.0318
     72 H           8.9344    3.7905    0.0000 H       1  UNL1        0.0236
     73 H           8.0883    3.5603    0.0000 H       1  UNL1        0.0236
     74 H           8.3185    2.7143    0.0000 H       1  UNL1        0.0236
     75 H           7.9180   -1.7819    0.0000 H       1  UNL1        0.0290
     76 H           8.3118   -2.4762    0.0000 H       1  UNL1        0.0290
     77 H          10.2021   -2.8647    0.0000 H       1  UNL1        0.0598
     78 H          11.7660    2.0745    0.0000 H       1  UNL1        0.2102
     79 H           8.0902    0.5296    0.0000 H       1  UNL1        0.1033
     80 H          11.7923   -1.0055    0.0000 H       1  UNL1        0.2102
     81 H           7.4456    4.1706    0.0000 H       1  UNL1        0.0746
     82 H           8.1650    3.7573    0.0000 H       1  UNL1        0.0746
     83 H           9.8008    5.7020    0.0000 H       1  UNL1        0.0689
     84 H           8.5991   -3.0911    0.0000 H       1  UNL1        0.0938
     85 H           8.5991   -5.7911    0.0000 H       1  UNL1        0.0674
     86 H           6.9970   -5.8661    0.0000 H       1  UNL1        0.0650
     87 H           6.8671   -3.0911    0.0000 H       1  UNL1        0.0621
     88 H           6.1309   -4.5161    0.0000 H       1  UNL1        0.0650
     89 H           6.3110   -2.9042    0.0000 H       1  UNL1        0.0255
     90 H           5.4641   -3.1311    0.0000 H       1  UNL1        0.0255
     91 H           5.6910   -3.9781    0.0000 H       1  UNL1        0.0255
     92 H          10.6412   -5.4781    0.0000 H       1  UNL1        0.0524
     93 H          10.8681   -4.6311    0.0000 H       1  UNL1        0.0524
     94 H          10.0212   -4.4042    0.0000 H       1  UNL1        0.0524
     95 H           5.1350   -5.7911    0.0000 H       1  UNL1        0.0938
     96 H           8.2891   -7.4781    0.0000 H       1  UNL1        0.0524
     97 H           9.1360   -7.2511    0.0000 H       1  UNL1        0.0524
     98 H           8.9091   -6.4042    0.0000 H       1  UNL1        0.0524
     99 H           3.5329   -5.8661    0.0000 H       1  UNL1        0.0671
    100 H           2.6668   -4.5161    0.0000 H       1  UNL1        0.0648
    101 H           5.0051   -3.0161    0.0000 H       1  UNL1        0.0647
    102 H           3.4030   -3.0911    0.0000 H       1  UNL1        0.0647
    103 H           3.7320   -6.7511    0.0000 H       1  UNL1        0.2101
    104 H           4.0569   -1.8585    0.0000 H       1  UNL1        0.0584
    105 H           3.6584   -2.5488    0.0000 H       1  UNL1        0.0584
    106 H           2.0000   -5.1311    0.0000 H       1  UNL1        0.2100
    107 H           2.5369   -2.8211    0.0000 H       1  UNL1        0.2100
    108 H           5.1350   -1.3211    0.0000 H       1  UNL1        0.2095
@<TRIPOS>BOND
     1     1    16    1
     2     1    78    1
     3     2    21    1
     4     2    80    1
     5     3    33    1
     6     3    38    1
     7     4    34    2
     8     5    36    1
     9     5    39    1
    10     6    38    1
    11     6    42    1
    12     7    39    2
    13     8    40    1
    14     8    45    1
    15     9    41    1
    16     9    47    1
    17    10    43    1
    18    10    46    1
    19    11    46    1
    20    11    50    1
    21    12    48    1
    22    12   103    1
    23    13    49    1
    24    13   106    1
    25    14    51    1
    26    14   107    1
    27    15    52    1
    28    15   108    1
    29    16    17    1
    30    16    18    1
    31    16    25    1
    32    17    19    1
    33    17    26    1
    34    17    53    1
    35    18    22    1
    36    18    23    1
    37    18    31    1
    38    19    20    1
    39    19    24    1
    40    19    54    1
    41    20    21    1
    42    20    29    1
    43    20    34    1
    44    21    27    1
    45    21    30    1
    46    22    28    1
    47    22    35    1
    48    22    55    1
    49    23    24    1
    50    23    56    1
    51    23    57    1
    52    24    58    1
    53    24    59    1
    54    25    28    1
    55    25    60    1
    56    25    61    1
    57    26    27    1
    58    26    62    1
    59    26    63    1
    60    27    64    1
    61    27    65    1
    62    28    66    1
    63    28    67    1
    64    29    32    1
    65    29    68    1
    66    29    69    1
    67    30    33    1
    68    30    70    1
    69    30    71    1
    70    31    72    1
    71    31    73    1
    72    31    74    1
    73    32    33    1
    74    32    75    1
    75    32    76    1
    76    33    77    1
    77    34    79    1
    78    35    36    1
    79    35    37    2
    80    36    81    1
    81    36    82    1
    82    37    39    1
    83    37    83    1
    84    38    40    1
    85    38    84    1
    86    40    41    1
    87    40    85    1
    88    41    43    1
    89    41    86    1
    90    42    43    1
    91    42    44    1
    92    42    87    1
    93    43    88    1
    94    44    89    1
    95    44    90    1
    96    44    91    1
    97    45    92    1
    98    45    93    1
    99    45    94    1
   100    46    48    1
   101    46    95    1
   102    47    96    1
   103    47    97    1
   104    47    98    1
   105    48    49    1
   106    48    99    1
   107    49    51    1
   108    49   100    1
   109    50    51    1
   110    50    52    1
   111    50   101    1
   112    51   102    1
   113    52   104    1
   114    52   105    1
