@<TRIPOS>MOLECULE
IMPHY012169
 23 23 0 0 0
SMALL
GASTEIGER

@<TRIPOS>ATOM
      1 O           2.8660   -1.5950    0.0000 O.3     1  UNL1       -0.4914
      2 O           4.5981   -2.5950    0.0000 O.3     1  UNL1       -0.5033
      3 O           5.4641    1.9050    0.0000 O.3     1  UNL1       -0.4644
      4 O           3.7320    1.9050    0.0000 O.2     1  UNL1       -0.2450
      5 C           4.5981    0.4050    0.0000 C.ar    1  UNL1        0.0627
      6 C           3.7320   -1.0950    0.0000 C.ar    1  UNL1        0.1620
      7 C           3.7320   -0.0950    0.0000 C.ar    1  UNL1       -0.0023
      8 C           4.5981   -1.5950    0.0000 C.ar    1  UNL1        0.1585
      9 C           5.4641   -0.0950    0.0000 C.ar    1  UNL1       -0.0441
     10 C           5.4641   -1.0950    0.0000 C.ar    1  UNL1       -0.0157
     11 C           4.5981    1.4050    0.0000 C.2     1  UNL1        0.3390
     12 C           2.0000   -1.0950    0.0000 C.3     1  UNL1        0.0790
     13 C           5.4641    2.9050    0.0000 C.3     1  UNL1        0.0820
     14 H           3.1951    0.2150    0.0000 H       1  UNL1        0.0663
     15 H           6.0010    0.2150    0.0000 H       1  UNL1        0.0627
     16 H           6.0010   -1.4050    0.0000 H       1  UNL1        0.0655
     17 H           2.3100   -0.5581    0.0000 H       1  UNL1        0.0660
     18 H           1.4631   -0.7850    0.0000 H       1  UNL1        0.0660
     19 H           1.6900   -1.6319    0.0000 H       1  UNL1        0.0660
     20 H           5.1350   -2.9050    0.0000 H       1  UNL1        0.2923
     21 H           6.0841    2.9050    0.0000 H       1  UNL1        0.0661
     22 H           5.4641    3.5250    0.0000 H       1  UNL1        0.0661
     23 H           4.8441    2.9050    0.0000 H       1  UNL1        0.0661
@<TRIPOS>BOND
     1     1     6    1
     2     1    12    1
     3     2     8    1
     4     2    20    1
     5     3    11    1
     6     3    13    1
     7     4    11    2
     8     5     7   ar
     9     5     9   ar
    10     5    11    1
    11     6     7   ar
    12     6     8   ar
    13     7    14    1
    14     8    10   ar
    15     9    10   ar
    16     9    15    1
    17    10    16    1
    18    12    17    1
    19    12    18    1
    20    12    19    1
    21    13    21    1
    22    13    22    1
    23    13    23    1
