@<TRIPOS>MOLECULE
IMPHY000501
 25 27 0 0 0
SMALL
GASTEIGER

@<TRIPOS>ATOM
      1 C           3.4550    1.5004    0.0000 C.ar    1  UNL1        0.1109
      2 C           3.4550    2.4999    0.0000 C.ar    1  UNL1        0.1479
      3 C           2.5912    1.0062    0.0000 C.ar    1  UNL1        0.2379
      4 C           4.3209    0.9995    0.0000 C.2     1  UNL1        0.1832
      5 O           4.3231    3.0030    0.0000 O.3     1  UNL1       -0.4738
      6 C           2.5934    3.0030    0.0000 C.ar    1  UNL1        0.0772
      7 C           1.7319    1.5049    0.0000 C.ar    1  UNL1        0.2114
      8 O           2.5890    0.0067    0.0000 O.3     1  UNL1       -0.2830
      9 C           5.1913    1.5026    0.0000 C.3     1  UNL1        0.1177
     10 O           4.3187    0.0000    0.0000 O.2     1  UNL1       -0.2910
     11 C           5.1913    2.5044    0.0000 C.3     1  UNL1        0.2018
     12 C           1.7319    2.5044    0.0000 C.ar    1  UNL1        0.1786
     13 O           0.8637    1.0040    0.0000 O.3     1  UNL1       -0.4653
     14 C           6.0573    3.0053    0.0000 C.ar    1  UNL1        0.0904
     15 O           0.8637    3.0030    0.0000 O.3     1  UNL1       -0.4682
     16 C           0.0000    1.5049    0.0000 C.3     1  UNL1        0.2528
     17 C           6.0573    4.0070    0.0000 C.ar    1  UNL1        0.1412
     18 C           6.9233    2.5066    0.0000 C.ar    1  UNL1        0.1980
     19 C           0.8637    4.0048    0.0000 C.3     1  UNL1        0.2526
     20 C           6.9233    4.5079    0.0000 C.ar    1  UNL1        0.0369
     21 O           5.1891    4.5057    0.0000 O.3     1  UNL1       -0.4715
     22 C           7.7914    3.0075    0.0000 C.ar    1  UNL1        0.0420
     23 O           6.9255    1.5071    0.0000 O.3     1  UNL1       -0.2867
     24 C           7.7892    4.0070    0.0000 C.ar    1  UNL1        0.0064
     25 C           5.1891    5.5052    0.0000 C.3     1  UNL1        0.2525
@<TRIPOS>BOND
     1     1     2   ar
     2     1     3   ar
     3     1     4    1
     4     2     5    1
     5     2     6   ar
     6     3     7   ar
     7     3     8    1
     8     4     9    1
     9     4    10    2
    10     5    11    1
    11     6    12   ar
    12     7    12   ar
    13     7    13    1
    14     9    11    1
    15    11    14    1
    16    12    15    1
    17    13    16    1
    18    14    17   ar
    19    14    18   ar
    20    15    19    1
    21    17    20   ar
    22    17    21    1
    23    18    22   ar
    24    18    23    1
    25    20    24   ar
    26    21    25    1
    27    22    24   ar
