@<TRIPOS>MOLECULE
IMPHY012072
 32 32 0 0 0
SMALL
GASTEIGER

@<TRIPOS>ATOM
      1 O           3.7320    1.2500    0.0000 O.3     1  UNL1       -0.4571
      2 O           5.4641    1.2500    0.0000 O.2     1  UNL1       -0.2511
      3 C           4.5981   -1.2500    0.0000 C.3     1  UNL1       -0.0133
      4 C           4.5981   -0.2500    0.0000 C.3     1  UNL1       -0.0049
      5 C           3.7320    0.2500    0.0000 C.3     1  UNL1        0.1244
      6 C           3.7320   -1.7500    0.0000 C.3     1  UNL1       -0.0278
      7 C           2.8660   -0.2500    0.0000 C.2     1  UNL1       -0.0366
      8 C           2.8660   -1.2500    0.0000 C.2     1  UNL1       -0.0810
      9 C           5.4641   -1.7500    0.0000 C.2     1  UNL1       -0.0762
     10 C           2.0000    0.2500    0.0000 C.3     1  UNL1       -0.0403
     11 C           5.4641   -2.7500    0.0000 C.3     1  UNL1       -0.0438
     12 C           6.3301   -1.2500    0.0000 C.2     1  UNL1       -0.0994
     13 C           4.5981    1.7500    0.0000 C.2     1  UNL1        0.3045
     14 C           4.5981    2.7500    0.0000 C.3     1  UNL1        0.0333
     15 H           4.5981   -1.8700    0.0000 H       1  UNL1        0.0350
     16 H           5.2087   -0.3577    0.0000 H       1  UNL1        0.0310
     17 H           4.8101    0.3326    0.0000 H       1  UNL1        0.0310
     18 H           4.2690    0.5600    0.0000 H       1  UNL1        0.0782
     19 H           3.3335   -2.2250    0.0000 H       1  UNL1        0.0313
     20 H           4.1306   -2.2250    0.0000 H       1  UNL1        0.0313
     21 H           2.3291   -1.5600    0.0000 H       1  UNL1        0.0573
     22 H           2.3100    0.7869    0.0000 H       1  UNL1        0.0276
     23 H           1.4631    0.5600    0.0000 H       1  UNL1        0.0276
     24 H           1.6900   -0.2869    0.0000 H       1  UNL1        0.0276
     25 H           4.8441   -2.7500    0.0000 H       1  UNL1        0.0274
     26 H           5.4641   -3.3700    0.0000 H       1  UNL1        0.0274
     27 H           6.0841   -2.7500    0.0000 H       1  UNL1        0.0274
     28 H           6.8671   -1.5600    0.0000 H       1  UNL1        0.0534
     29 H           6.3301   -0.6300    0.0000 H       1  UNL1        0.0534
     30 H           5.2181    2.7500    0.0000 H       1  UNL1        0.0342
     31 H           4.5981    3.3700    0.0000 H       1  UNL1        0.0342
     32 H           3.9781    2.7500    0.0000 H       1  UNL1        0.0342
@<TRIPOS>BOND
     1     1     5    1
     2     1    13    1
     3     2    13    2
     4     3     4    1
     5     3     6    1
     6     3     9    1
     7     3    15    1
     8     4     5    1
     9     4    16    1
    10     4    17    1
    11     5     7    1
    12     5    18    1
    13     6     8    1
    14     6    19    1
    15     6    20    1
    16     7     8    2
    17     7    10    1
    18     8    21    1
    19     9    11    1
    20     9    12    2
    21    10    22    1
    22    10    23    1
    23    10    24    1
    24    11    25    1
    25    11    26    1
    26    11    27    1
    27    12    28    1
    28    12    29    1
    29    13    14    1
    30    14    30    1
    31    14    31    1
    32    14    32    1
