@<TRIPOS>MOLECULE
IMPHY005683
 45 49 0 0 0
SMALL
GASTEIGER

@<TRIPOS>ATOM
      1 O           6.8469   -0.4647    0.0000 O.3     1  UNL1       -0.3636
      2 O          11.3047   -0.2533    0.0000 O.3     1  UNL1       -0.4526
      3 O           2.8605    1.5416    0.0000 O.3     1  UNL1       -0.4526
      4 O          11.3047   -1.8627    0.0000 O.3     1  UNL1       -0.4526
      5 O           2.2058    0.0713    0.0000 O.3     1  UNL1       -0.4526
      6 C           7.6559    0.9365    0.0000 C.3     1  UNL1       -0.0081
      7 C           6.6778    1.1444    0.0000 C.3     1  UNL1       -0.0081
      8 C           7.7604   -0.0580    0.0000 C.3     1  UNL1        0.0874
      9 C           6.1778    0.2784    0.0000 C.3     1  UNL1        0.0874
     10 C           8.3991    1.6057    0.0000 C.3     1  UNL1       -0.0594
     11 C           6.2710    2.0580    0.0000 C.3     1  UNL1       -0.0594
     12 C           8.6265   -0.5580    0.0000 C.ar    1  UNL1       -0.0149
     13 C           5.1832    0.1739    0.0000 C.ar    1  UNL1       -0.0149
     14 C           9.4925   -0.0580    0.0000 C.ar    1  UNL1       -0.0105
     15 C           4.5955    0.9829    0.0000 C.ar    1  UNL1       -0.0105
     16 C           8.6265   -1.5580    0.0000 C.ar    1  UNL1       -0.0524
     17 C           4.7765   -0.7397    0.0000 C.ar    1  UNL1       -0.0524
     18 C          10.3585   -0.5580    0.0000 C.ar    1  UNL1        0.1666
     19 C           3.6009    0.8784    0.0000 C.ar    1  UNL1        0.1666
     20 C           9.4925   -2.0580    0.0000 C.ar    1  UNL1       -0.0158
     21 C           3.7820   -0.8442    0.0000 C.ar    1  UNL1       -0.0158
     22 C          10.3585   -1.5580    0.0000 C.ar    1  UNL1        0.1662
     23 C           3.1942   -0.0352    0.0000 C.ar    1  UNL1        0.1662
     24 C           2.0000    1.0438    0.0000 C.3     1  UNL1        0.2332
     25 C          11.8883   -1.0580    0.0000 C.3     1  UNL1        0.2332
     26 H           7.4359    1.7576    0.0000 H       1  UNL1        0.0330
     27 H           5.8289    1.1889    0.0000 H       1  UNL1        0.0330
     28 H           5.8732   -0.5151    0.0000 H       1  UNL1        0.0649
     29 H           8.4733    0.4050    0.0000 H       1  UNL1        0.0649
     30 H           8.8139    1.1449    0.0000 H       1  UNL1        0.0233
     31 H           8.8598    2.0205    0.0000 H       1  UNL1        0.0233
     32 H           7.9842    2.0664    0.0000 H       1  UNL1        0.0233
     33 H           6.8374    2.3102    0.0000 H       1  UNL1        0.0233
     34 H           6.0188    2.6244    0.0000 H       1  UNL1        0.0233
     35 H           5.7046    1.8058    0.0000 H       1  UNL1        0.0233
     36 H           9.4925    0.5620    0.0000 H       1  UNL1        0.0659
     37 H           4.8476    1.5493    0.0000 H       1  UNL1        0.0659
     38 H           8.0895   -1.8680    0.0000 H       1  UNL1        0.0622
     39 H           5.1409   -1.2412    0.0000 H       1  UNL1        0.0622
     40 H           9.4925   -2.6780    0.0000 H       1  UNL1        0.0655
     41 H           3.5298   -1.4106    0.0000 H       1  UNL1        0.0655
     42 H          12.3492   -1.4727    0.0000 H       1  UNL1        0.1166
     43 H          12.3492   -0.6433    0.0000 H       1  UNL1        0.1166
     44 H           1.7477    1.6102    0.0000 H       1  UNL1        0.1166
     45 H           1.4103    0.8524    0.0000 H       1  UNL1        0.1166
@<TRIPOS>BOND
     1     1     8    1
     2     1     9    1
     3     2    18    1
     4     2    25    1
     5     3    19    1
     6     3    24    1
     7     4    22    1
     8     4    25    1
     9     5    23    1
    10     5    24    1
    11     6     7    1
    12     6     8    1
    13     6    10    1
    14     6    26    1
    15     7     9    1
    16     7    11    1
    17     7    27    1
    18     8    12    1
    19     8    29    1
    20     9    13    1
    21     9    28    1
    22    10    30    1
    23    10    31    1
    24    10    32    1
    25    11    33    1
    26    11    34    1
    27    11    35    1
    28    12    14   ar
    29    12    16   ar
    30    13    15   ar
    31    13    17   ar
    32    14    18   ar
    33    14    36    1
    34    15    19   ar
    35    15    37    1
    36    16    20   ar
    37    16    38    1
    38    17    21   ar
    39    17    39    1
    40    18    22   ar
    41    19    23   ar
    42    20    22   ar
    43    20    40    1
    44    21    23   ar
    45    21    41    1
    46    24    44    1
    47    24    45    1
    48    25    42    1
    49    25    43    1
