@<TRIPOS>MOLECULE
IMPHY009770
 42 43 0 0 0
SMALL
GASTEIGER

@<TRIPOS>ATOM
      1 O           5.2665    2.5948    0.0000 O.3     1  UNL1       -0.3875
      2 C           3.4848   -0.8385    0.0000 C.3     1  UNL1       -0.0344
      3 C           4.0835   -2.1294    0.0000 C.3     1  UNL1       -0.0312
      4 C           4.4245   -1.1805    0.0000 C.3     1  UNL1       -0.0293
      5 C           3.1361   -1.7845    0.0000 C.3     1  UNL1       -0.0442
      6 C           2.9848    0.0275    0.0000 C.3     1  UNL1       -0.0407
      7 C           5.3642   -0.8385    0.0000 C.3     1  UNL1       -0.0308
      8 C           3.7434   -3.0698    0.0000 C.3     1  UNL1       -0.0595
      9 C           5.0239   -2.4695    0.0000 C.3     1  UNL1       -0.0595
     10 C           3.1585    1.0124    0.0000 C.3     1  UNL1       -0.0476
     11 C           2.0000   -0.1461    0.0000 C.3     1  UNL1       -0.0622
     12 C           5.8642    0.0275    0.0000 C.2     1  UNL1       -0.0823
     13 C           3.9245    1.6551    0.0000 C.3     1  UNL1       -0.0227
     14 C           4.9245    1.6551    0.0000 C.3     1  UNL1        0.0760
     15 C           5.6905    1.0124    0.0000 C.2     1  UNL1       -0.0485
     16 C           6.5566    1.5124    0.0000 C.3     1  UNL1       -0.0414
     17 H           2.8671   -0.8912    0.0000 H       1  UNL1        0.0306
     18 H           4.8638   -1.6180    0.0000 H       1  UNL1        0.0312
     19 H           2.5540   -1.5709    0.0000 H       1  UNL1        0.0273
     20 H           2.9232   -2.3668    0.0000 H       1  UNL1        0.0273
     21 H           2.5464    0.4660    0.0000 H       1  UNL1        0.0301
     22 H           5.4002   -1.4574    0.0000 H       1  UNL1        0.0310
     23 H           5.9675   -0.9815    0.0000 H       1  UNL1        0.0310
     24 H           3.1604   -2.8589    0.0000 H       1  UNL1        0.0235
     25 H           3.5326   -3.6528    0.0000 H       1  UNL1        0.0235
     26 H           4.3265   -3.2806    0.0000 H       1  UNL1        0.0235
     27 H           4.8131   -3.0525    0.0000 H       1  UNL1        0.0235
     28 H           5.6070   -2.6803    0.0000 H       1  UNL1        0.0235
     29 H           5.2348   -1.8864    0.0000 H       1  UNL1        0.0235
     30 H           2.9129    1.5816    0.0000 H       1  UNL1        0.0269
     31 H           2.5426    0.9404    0.0000 H       1  UNL1        0.0269
     32 H           1.8923    0.4645    0.0000 H       1  UNL1        0.0233
     33 H           1.3894   -0.2538    0.0000 H       1  UNL1        0.0233
     34 H           2.1077   -0.7567    0.0000 H       1  UNL1        0.0233
     35 H           4.1023    2.2491    0.0000 H       1  UNL1        0.0293
     36 H           3.4065    1.9958    0.0000 H       1  UNL1        0.0293
     37 H           6.4748   -0.0801    0.0000 H       1  UNL1        0.0572
     38 H           5.5234    1.8156    0.0000 H       1  UNL1        0.0640
     39 H           6.8666    0.9754    0.0000 H       1  UNL1        0.0275
     40 H           7.0935    1.8224    0.0000 H       1  UNL1        0.0275
     41 H           6.2466    2.0493    0.0000 H       1  UNL1        0.0275
     42 H           4.8680    3.0698    0.0000 H       1  UNL1        0.2102
@<TRIPOS>BOND
     1     1    14    1
     2     1    42    1
     3     2     4    1
     4     2     5    1
     5     2     6    1
     6     2    17    1
     7     3     4    1
     8     3     5    1
     9     3     8    1
    10     3     9    1
    11     4     7    1
    12     4    18    1
    13     5    19    1
    14     5    20    1
    15     6    10    1
    16     6    11    1
    17     6    21    1
    18     7    12    1
    19     7    22    1
    20     7    23    1
    21     8    24    1
    22     8    25    1
    23     8    26    1
    24     9    27    1
    25     9    28    1
    26     9    29    1
    27    10    13    1
    28    10    30    1
    29    10    31    1
    30    11    32    1
    31    11    33    1
    32    11    34    1
    33    12    15    2
    34    12    37    1
    35    13    14    1
    36    13    35    1
    37    13    36    1
    38    14    15    1
    39    14    38    1
    40    15    16    1
    41    16    39    1
    42    16    40    1
    43    16    41    1
