@<TRIPOS>MOLECULE
IMPHY016551
 26 26 0 0 0
SMALL
GASTEIGER

@<TRIPOS>ATOM
      1 O           3.7320    0.2500    0.0000 O.3     1  UNL1       -0.4611
      2 O           2.0000    0.2500    0.0000 O.2     1  UNL1       -0.2449
      3 N           3.7320   -2.7500    0.0000 N.ar    1  UNL1       -0.2624
      4 C           4.5981    1.7500    0.0000 C.3     1  UNL1       -0.0188
      5 C           4.5981    2.7500    0.0000 C.3     1  UNL1       -0.0528
      6 C           3.7320    1.2500    0.0000 C.3     1  UNL1        0.0928
      7 C           5.4641    3.2500    0.0000 C.3     1  UNL1       -0.0652
      8 C           2.8660   -0.2500    0.0000 C.2     1  UNL1        0.3407
      9 C           2.8660   -1.2500    0.0000 C.ar    1  UNL1        0.0770
     10 C           2.0000   -1.7500    0.0000 C.ar    1  UNL1       -0.0449
     11 C           3.7320   -1.7500    0.0000 C.ar    1  UNL1        0.0415
     12 C           2.0000   -2.7500    0.0000 C.ar    1  UNL1       -0.0428
     13 C           2.8660   -3.2500    0.0000 C.ar    1  UNL1        0.0276
     14 H           4.8101    1.1674    0.0000 H       1  UNL1        0.0298
     15 H           5.2087    1.8577    0.0000 H       1  UNL1        0.0298
     16 H           4.3860    3.3326    0.0000 H       1  UNL1        0.0264
     17 H           3.9875    2.6423    0.0000 H       1  UNL1        0.0264
     18 H           3.5200    1.8326    0.0000 H       1  UNL1        0.0697
     19 H           3.1215    1.1423    0.0000 H       1  UNL1        0.0697
     20 H           5.7741    2.7131    0.0000 H       1  UNL1        0.0230
     21 H           6.0010    3.5600    0.0000 H       1  UNL1        0.0230
     22 H           5.1541    3.7869    0.0000 H       1  UNL1        0.0230
     23 H           1.4631   -1.4400    0.0000 H       1  UNL1        0.0627
     24 H           4.2690   -1.4400    0.0000 H       1  UNL1        0.0838
     25 H           1.4631   -3.0600    0.0000 H       1  UNL1        0.0633
     26 H           2.8660   -3.8700    0.0000 H       1  UNL1        0.0829
@<TRIPOS>BOND
     1     1     6    1
     2     1     8    1
     3     2     8    2
     4     3    11   ar
     5     3    13   ar
     6     4     5    1
     7     4     6    1
     8     4    14    1
     9     4    15    1
    10     5     7    1
    11     5    16    1
    12     5    17    1
    13     6    18    1
    14     6    19    1
    15     7    20    1
    16     7    21    1
    17     7    22    1
    18     8     9    1
    19     9    10   ar
    20     9    11   ar
    21    10    12   ar
    22    10    23    1
    23    11    24    1
    24    12    13   ar
    25    12    25    1
    26    13    26    1
