@<TRIPOS>MOLECULE
IMPHY010947
 44 47 0 0 0
SMALL
GASTEIGER

@<TRIPOS>ATOM
      1 O           6.3624    1.1555    0.0000 O.3     1  UNL1       -0.4894
      2 O           9.8984    1.1276    0.0000 O.3     1  UNL1       -0.4814
      3 O           6.3740   -1.9138    0.0000 O.2     1  UNL1       -0.2910
      4 O           8.1224   -1.8792    0.0000 O.3     1  UNL1       -0.5058
      5 O           3.7205    0.5933    0.0000 O.3     1  UNL1       -0.5064
      6 O           2.0000   -2.4134    0.0000 O.3     1  UNL1       -0.5066
      7 C           5.4564   -0.4000    0.0000 C.3     1  UNL1        0.0847
      8 C           9.9065    2.1692    0.0000 C.3     1  UNL1        0.1235
      9 C           7.2564    0.6208    0.0000 C.ar    1  UNL1        0.1451
     10 C           7.2564   -0.3792    0.0000 C.ar    1  UNL1        0.1018
     11 C           5.4564    0.6416    0.0000 C.3     1  UNL1        0.1036
     12 C           8.1224    1.1208    0.0000 C.ar    1  UNL1        0.0591
     13 C           6.3624   -0.9139    0.0000 C.2     1  UNL1        0.1809
     14 C           8.9884    0.6208    0.0000 C.ar    1  UNL1        0.1359
     15 C           4.5923   -0.9033    0.0000 C.ar    1  UNL1        0.0081
     16 C           9.0044    2.6901    0.0000 C.2     1  UNL1       -0.0408
     17 C           8.1224   -0.8792    0.0000 C.ar    1  UNL1        0.1344
     18 C           8.1063    2.1623    0.0000 C.2     1  UNL1       -0.0478
     19 C           8.9884   -0.3792    0.0000 C.ar    1  UNL1        0.0231
     20 C          10.4098    3.0333    0.0000 C.3     1  UNL1       -0.0215
     21 C          10.9065    2.1654    0.0000 C.3     1  UNL1       -0.0215
     22 C           3.7243   -0.4067    0.0000 C.ar    1  UNL1        0.1243
     23 C           4.5961   -1.9033    0.0000 C.ar    1  UNL1       -0.0509
     24 C           2.8602   -0.9100    0.0000 C.ar    1  UNL1        0.0216
     25 C           3.7320   -2.4067    0.0000 C.ar    1  UNL1       -0.0197
     26 C           2.8641   -1.9100    0.0000 C.ar    1  UNL1        0.1203
     27 H           5.4613   -1.2500    0.0000 H       1  UNL1        0.0464
     28 H           5.2473    1.2253    0.0000 H       1  UNL1        0.0707
     29 H           4.8455    0.5355    0.0000 H       1  UNL1        0.0707
     30 H           9.0020    3.3101    0.0000 H       1  UNL1        0.0611
     31 H           7.5659    2.4661    0.0000 H       1  UNL1        0.0624
     32 H           9.5254   -0.6892    0.0000 H       1  UNL1        0.0691
     33 H          10.9041    1.5454    0.0000 H       1  UNL1        0.0271
     34 H          11.5264    2.1630    0.0000 H       1  UNL1        0.0271
     35 H          10.9088    2.7854    0.0000 H       1  UNL1        0.0271
     36 H          10.9455    2.7213    0.0000 H       1  UNL1        0.0271
     37 H          10.7219    3.5691    0.0000 H       1  UNL1        0.0271
     38 H           9.8740    3.3454    0.0000 H       1  UNL1        0.0271
     39 H           5.1343   -2.2113    0.0000 H       1  UNL1        0.0623
     40 H           2.3221   -0.6021    0.0000 H       1  UNL1        0.0691
     41 H           3.7344   -3.0267    0.0000 H       1  UNL1        0.0654
     42 H           8.6593   -2.1892    0.0000 H       1  UNL1        0.2922
     43 H           3.1824    0.9012    0.0000 H       1  UNL1        0.2921
     44 H           2.0024   -3.0333    0.0000 H       1  UNL1        0.2921
@<TRIPOS>BOND
     1     1     9    1
     2     1    11    1
     3     2     8    1
     4     2    14    1
     5     3    13    2
     6     4    17    1
     7     4    42    1
     8     5    22    1
     9     5    43    1
    10     6    26    1
    11     6    44    1
    12     7    11    1
    13     7    13    1
    14     7    15    1
    15     7    27    1
    16     8    16    1
    17     8    20    1
    18     8    21    1
    19     9    10   ar
    20     9    12   ar
    21    10    13    1
    22    10    17   ar
    23    11    28    1
    24    11    29    1
    25    12    14   ar
    26    12    18    1
    27    14    19   ar
    28    15    22   ar
    29    15    23   ar
    30    16    18    2
    31    16    30    1
    32    17    19   ar
    33    18    31    1
    34    19    32    1
    35    20    36    1
    36    20    37    1
    37    20    38    1
    38    21    33    1
    39    21    34    1
    40    21    35    1
    41    22    24   ar
    42    23    25   ar
    43    23    39    1
    44    24    26   ar
    45    24    40    1
    46    25    26   ar
    47    25    41    1
