@<TRIPOS>MOLECULE
IMPHY010094
 173 172 0 0 0
SMALL
GASTEIGER

@<TRIPOS>ATOM
      1 O          20.1865    7.2500    0.0000 O.3     1  UNL1       -0.4544
      2 O          17.5885    6.7500    0.0000 O.3     1  UNL1       -0.4608
      3 O          18.4545    5.2500    0.0000 O.3     1  UNL1       -0.4608
      4 O          21.0526    5.7500    0.0000 O.2     1  UNL1       -0.2508
      5 O          16.7224    8.2500    0.0000 O.2     1  UNL1       -0.2509
      6 O          19.3205    3.7500    0.0000 O.2     1  UNL1       -0.2509
      7 C          27.9808    6.7500    0.0000 C.3     1  UNL1       -0.0531
      8 C          28.8468    7.2500    0.0000 C.3     1  UNL1       -0.0531
      9 C           9.7942    7.2500    0.0000 C.3     1  UNL1       -0.0531
     10 C          14.9904   -1.7500    0.0000 C.3     1  UNL1       -0.0531
     11 C           8.9282    6.7500    0.0000 C.3     1  UNL1       -0.0531
     12 C          14.1244   -2.2500    0.0000 C.3     1  UNL1       -0.0531
     13 C          27.1147    7.2500    0.0000 C.3     1  UNL1       -0.0531
     14 C          29.7128    6.7500    0.0000 C.3     1  UNL1       -0.0531
     15 C          10.6603    6.7500    0.0000 C.3     1  UNL1       -0.0531
     16 C          14.9904   -0.7500    0.0000 C.3     1  UNL1       -0.0531
     17 C           8.0622    7.2500    0.0000 C.3     1  UNL1       -0.0531
     18 C          14.1244   -3.2500    0.0000 C.3     1  UNL1       -0.0531
     19 C          26.2487    6.7500    0.0000 C.3     1  UNL1       -0.0531
     20 C          30.5788    7.2500    0.0000 C.3     1  UNL1       -0.0531
     21 C          11.5263    7.2500    0.0000 C.3     1  UNL1       -0.0531
     22 C          15.8564   -0.2500    0.0000 C.3     1  UNL1       -0.0531
     23 C           7.1962    6.7500    0.0000 C.3     1  UNL1       -0.0531
     24 C          13.2583   -3.7500    0.0000 C.3     1  UNL1       -0.0531
     25 C          25.3827    7.2500    0.0000 C.3     1  UNL1       -0.0531
     26 C          31.4449    6.7500    0.0000 C.3     1  UNL1       -0.0531
     27 C          12.3923    6.7500    0.0000 C.3     1  UNL1       -0.0531
     28 C          15.8564    0.7500    0.0000 C.3     1  UNL1       -0.0531
     29 C           6.3301    7.2500    0.0000 C.3     1  UNL1       -0.0531
     30 C          13.2583   -4.7500    0.0000 C.3     1  UNL1       -0.0531
     31 C          24.5167    6.7500    0.0000 C.3     1  UNL1       -0.0530
     32 C          32.3109    7.2500    0.0000 C.3     1  UNL1       -0.0531
     33 C          13.2583    7.2500    0.0000 C.3     1  UNL1       -0.0530
     34 C          16.7224    1.2500    0.0000 C.3     1  UNL1       -0.0530
     35 C           5.4641    6.7500    0.0000 C.3     1  UNL1       -0.0531
     36 C          12.3923   -5.2500    0.0000 C.3     1  UNL1       -0.0531
     37 C          23.6506    7.2500    0.0000 C.3     1  UNL1       -0.0526
     38 C          33.1769    6.7500    0.0000 C.3     1  UNL1       -0.0531
     39 C          14.1244    6.7500    0.0000 C.3     1  UNL1       -0.0526
     40 C          16.7224    2.2500    0.0000 C.3     1  UNL1       -0.0526
     41 C           4.5981    7.2500    0.0000 C.3     1  UNL1       -0.0531
     42 C          12.3923   -6.2500    0.0000 C.3     1  UNL1       -0.0531
     43 C          22.7846    6.7500    0.0000 C.3     1  UNL1       -0.0430
     44 C          34.0429    7.2500    0.0000 C.3     1  UNL1       -0.0533
     45 C          14.9904    7.2500    0.0000 C.3     1  UNL1       -0.0430
     46 C          17.5885    2.7500    0.0000 C.3     1  UNL1       -0.0430
     47 C           3.7320    6.7500    0.0000 C.3     1  UNL1       -0.0533
     48 C          11.5263   -6.7500    0.0000 C.3     1  UNL1       -0.0533
     49 C          21.9186    7.2500    0.0000 C.3     1  UNL1        0.0450
     50 C          34.9090    6.7500    0.0000 C.3     1  UNL1       -0.0559
     51 C           2.8660    7.2500    0.0000 C.3     1  UNL1       -0.0559
     52 C          11.5263   -7.7500    0.0000 C.3     1  UNL1       -0.0559
     53 C          15.8564    6.7500    0.0000 C.3     1  UNL1        0.0449
     54 C          17.5885    3.7500    0.0000 C.3     1  UNL1        0.0449
     55 C          19.3205    6.7500    0.0000 C.3     1  UNL1        0.1706
     56 C          21.0526    6.7500    0.0000 C.2     1  UNL1        0.3075
     57 C          35.7750    7.2500    0.0000 C.3     1  UNL1       -0.0653
     58 C           2.0000    6.7500    0.0000 C.3     1  UNL1       -0.0653
     59 C          10.6603   -8.2500    0.0000 C.3     1  UNL1       -0.0653
     60 C          16.7224    7.2500    0.0000 C.2     1  UNL1        0.3072
     61 C          18.4545    4.2500    0.0000 C.2     1  UNL1        0.3072
     62 C          18.4545    7.2500    0.0000 C.3     1  UNL1        0.1325
     63 C          19.3205    5.7500    0.0000 C.3     1  UNL1        0.1325
     64 H          27.5822    6.2750    0.0000 H       1  UNL1        0.0265
     65 H          28.3793    6.2750    0.0000 H       1  UNL1        0.0265
     66 H          29.2453    7.7250    0.0000 H       1  UNL1        0.0265
     67 H          28.4483    7.7250    0.0000 H       1  UNL1        0.0265
     68 H          15.2024   -2.3326    0.0000 H       1  UNL1        0.0265
     69 H          15.6010   -1.6423    0.0000 H       1  UNL1        0.0265
     70 H          10.1928    7.7250    0.0000 H       1  UNL1        0.0265
     71 H           9.3957    7.7250    0.0000 H       1  UNL1        0.0265
     72 H           8.5297    6.2750    0.0000 H       1  UNL1        0.0265
     73 H           9.3267    6.2750    0.0000 H       1  UNL1        0.0265
     74 H          13.9123   -1.6674    0.0000 H       1  UNL1        0.0265
     75 H          13.5138   -2.3577    0.0000 H       1  UNL1        0.0265
     76 H          27.5133    7.7250    0.0000 H       1  UNL1        0.0265
     77 H          26.7162    7.7250    0.0000 H       1  UNL1        0.0265
     78 H          29.3143    6.2750    0.0000 H       1  UNL1        0.0265
     79 H          30.1113    6.2750    0.0000 H       1  UNL1        0.0265
     80 H          10.2617    6.2750    0.0000 H       1  UNL1        0.0265
     81 H          11.0588    6.2750    0.0000 H       1  UNL1        0.0265
     82 H          14.7783   -0.1674    0.0000 H       1  UNL1        0.0265
     83 H          14.3798   -0.8577    0.0000 H       1  UNL1        0.0265
     84 H          14.3364   -3.8326    0.0000 H       1  UNL1        0.0265
     85 H          14.7349   -3.1423    0.0000 H       1  UNL1        0.0265
     86 H           8.4607    7.7250    0.0000 H       1  UNL1        0.0265
     87 H           7.6636    7.7250    0.0000 H       1  UNL1        0.0265
     88 H          25.8502    6.2750    0.0000 H       1  UNL1        0.0265
     89 H          26.6472    6.2750    0.0000 H       1  UNL1        0.0265
     90 H          30.9774    7.7250    0.0000 H       1  UNL1        0.0265
     91 H          30.1803    7.7250    0.0000 H       1  UNL1        0.0265
     92 H          11.9248    7.7250    0.0000 H       1  UNL1        0.0265
     93 H          11.1278    7.7250    0.0000 H       1  UNL1        0.0265
     94 H          16.0685   -0.8326    0.0000 H       1  UNL1        0.0265
     95 H          16.4670   -0.1423    0.0000 H       1  UNL1        0.0265
     96 H           6.7976    6.2750    0.0000 H       1  UNL1        0.0265
     97 H           7.5947    6.2750    0.0000 H       1  UNL1        0.0265
     98 H          13.0463   -3.1674    0.0000 H       1  UNL1        0.0265
     99 H          12.6477   -3.8577    0.0000 H       1  UNL1        0.0265
    100 H          25.7812    7.7250    0.0000 H       1  UNL1        0.0265
    101 H          24.9842    7.7250    0.0000 H       1  UNL1        0.0265
    102 H          31.0463    6.2750    0.0000 H       1  UNL1        0.0265
    103 H          31.8434    6.2750    0.0000 H       1  UNL1        0.0265
    104 H          15.6444    1.3326    0.0000 H       1  UNL1        0.0265
    105 H          15.2458    0.6423    0.0000 H       1  UNL1        0.0265
    106 H          11.9938    6.2750    0.0000 H       1  UNL1        0.0265
    107 H          12.7908    6.2750    0.0000 H       1  UNL1        0.0265
    108 H           6.7287    7.7250    0.0000 H       1  UNL1        0.0265
    109 H           5.9316    7.7250    0.0000 H       1  UNL1        0.0265
    110 H          13.4704   -5.3326    0.0000 H       1  UNL1        0.0265
    111 H          13.8689   -4.6423    0.0000 H       1  UNL1        0.0265
    112 H          24.1181    6.2750    0.0000 H       1  UNL1        0.0265
    113 H          24.9152    6.2750    0.0000 H       1  UNL1        0.0265
    114 H          32.7094    7.7250    0.0000 H       1  UNL1        0.0265
    115 H          31.9124    7.7250    0.0000 H       1  UNL1        0.0265
    116 H          16.9345    0.6674    0.0000 H       1  UNL1        0.0265
    117 H          17.3330    1.3577    0.0000 H       1  UNL1        0.0265
    118 H          13.6569    7.7250    0.0000 H       1  UNL1        0.0265
    119 H          12.8598    7.7250    0.0000 H       1  UNL1        0.0265
    120 H          12.1803   -4.6674    0.0000 H       1  UNL1        0.0265
    121 H          11.7817   -5.3577    0.0000 H       1  UNL1        0.0265
    122 H           5.0656    6.2750    0.0000 H       1  UNL1        0.0265
    123 H           5.8626    6.2750    0.0000 H       1  UNL1        0.0265
    124 H          24.0492    7.7250    0.0000 H       1  UNL1        0.0265
    125 H          23.2521    7.7250    0.0000 H       1  UNL1        0.0265
    126 H          32.7784    6.2750    0.0000 H       1  UNL1        0.0265
    127 H          33.5754    6.2750    0.0000 H       1  UNL1        0.0265
    128 H          16.5104    2.8326    0.0000 H       1  UNL1        0.0265
    129 H          16.1119    2.1423    0.0000 H       1  UNL1        0.0265
    130 H          13.7258    6.2750    0.0000 H       1  UNL1        0.0265
    131 H          14.5229    6.2750    0.0000 H       1  UNL1        0.0265
    132 H           4.9966    7.7250    0.0000 H       1  UNL1        0.0265
    133 H           4.1996    7.7250    0.0000 H       1  UNL1        0.0265
    134 H          12.6044   -6.8326    0.0000 H       1  UNL1        0.0265
    135 H          13.0029   -6.1423    0.0000 H       1  UNL1        0.0265
    136 H          22.3861    6.2750    0.0000 H       1  UNL1        0.0270
    137 H          23.1831    6.2750    0.0000 H       1  UNL1        0.0270
    138 H          34.4415    7.7250    0.0000 H       1  UNL1        0.0265
    139 H          33.6444    7.7250    0.0000 H       1  UNL1        0.0265
    140 H          15.3889    7.7250    0.0000 H       1  UNL1        0.0270
    141 H          17.8005    2.1674    0.0000 H       1  UNL1        0.0270
    142 H          18.1990    2.8577    0.0000 H       1  UNL1        0.0270
    143 H          14.5919    7.7250    0.0000 H       1  UNL1        0.0270
    144 H           3.3335    6.2750    0.0000 H       1  UNL1        0.0265
    145 H           4.1306    6.2750    0.0000 H       1  UNL1        0.0265
    146 H          11.3142   -6.1674    0.0000 H       1  UNL1        0.0265
    147 H          10.9157   -6.8577    0.0000 H       1  UNL1        0.0265
    148 H          22.3171    7.7250    0.0000 H       1  UNL1        0.0377
    149 H          21.5201    7.7250    0.0000 H       1  UNL1        0.0377
    150 H          34.5104    6.2750    0.0000 H       1  UNL1        0.0263
    151 H          35.3075    6.2750    0.0000 H       1  UNL1        0.0263
    152 H          11.7383   -8.3326    0.0000 H       1  UNL1        0.0263
    153 H           3.2646    7.7250    0.0000 H       1  UNL1        0.0263
    154 H           2.4675    7.7250    0.0000 H       1  UNL1        0.0263
    155 H          12.1369   -7.6423    0.0000 H       1  UNL1        0.0263
    156 H          15.4579    6.2750    0.0000 H       1  UNL1        0.0377
    157 H          17.3764    4.3326    0.0000 H       1  UNL1        0.0377
    158 H          16.9779    3.6423    0.0000 H       1  UNL1        0.0377
    159 H          16.2549    6.2750    0.0000 H       1  UNL1        0.0377
    160 H          19.8574    6.4400    0.0000 H       1  UNL1        0.0803
    161 H          36.0850    6.7131    0.0000 H       1  UNL1        0.0230
    162 H          36.3119    7.5600    0.0000 H       1  UNL1        0.0230
    163 H          35.4650    7.7869    0.0000 H       1  UNL1        0.0230
    164 H           1.6900    7.2869    0.0000 H       1  UNL1        0.0230
    165 H           1.4631    6.4400    0.0000 H       1  UNL1        0.0230
    166 H          10.3503   -7.7131    0.0000 H       1  UNL1        0.0230
    167 H          10.1233   -8.5600    0.0000 H       1  UNL1        0.0230
    168 H          10.9703   -8.7869    0.0000 H       1  UNL1        0.0230
    169 H           2.3100    6.2131    0.0000 H       1  UNL1        0.0230
    170 H          18.8530    7.7250    0.0000 H       1  UNL1        0.0736
    171 H          18.0560    7.7250    0.0000 H       1  UNL1        0.0736
    172 H          19.5326    5.1674    0.0000 H       1  UNL1        0.0736
    173 H          19.9311    5.8577    0.0000 H       1  UNL1        0.0736
@<TRIPOS>BOND
     1     1    55    1
     2     1    56    1
     3     2    60    1
     4     2    62    1
     5     3    61    1
     6     3    63    1
     7     4    56    2
     8     5    60    2
     9     6    61    2
    10     7     8    1
    11     7    13    1
    12     7    64    1
    13     7    65    1
    14     8    14    1
    15     8    66    1
    16     8    67    1
    17     9    11    1
    18     9    15    1
    19     9    70    1
    20     9    71    1
    21    10    12    1
    22    10    16    1
    23    10    68    1
    24    10    69    1
    25    11    17    1
    26    11    72    1
    27    11    73    1
    28    12    18    1
    29    12    74    1
    30    12    75    1
    31    13    19    1
    32    13    76    1
    33    13    77    1
    34    14    20    1
    35    14    78    1
    36    14    79    1
    37    15    21    1
    38    15    80    1
    39    15    81    1
    40    16    22    1
    41    16    82    1
    42    16    83    1
    43    17    23    1
    44    17    86    1
    45    17    87    1
    46    18    24    1
    47    18    84    1
    48    18    85    1
    49    19    25    1
    50    19    88    1
    51    19    89    1
    52    20    26    1
    53    20    90    1
    54    20    91    1
    55    21    27    1
    56    21    92    1
    57    21    93    1
    58    22    28    1
    59    22    94    1
    60    22    95    1
    61    23    29    1
    62    23    96    1
    63    23    97    1
    64    24    30    1
    65    24    98    1
    66    24    99    1
    67    25    31    1
    68    25   100    1
    69    25   101    1
    70    26    32    1
    71    26   102    1
    72    26   103    1
    73    27    33    1
    74    27   106    1
    75    27   107    1
    76    28    34    1
    77    28   104    1
    78    28   105    1
    79    29    35    1
    80    29   108    1
    81    29   109    1
    82    30    36    1
    83    30   110    1
    84    30   111    1
    85    31    37    1
    86    31   112    1
    87    31   113    1
    88    32    38    1
    89    32   114    1
    90    32   115    1
    91    33    39    1
    92    33   118    1
    93    33   119    1
    94    34    40    1
    95    34   116    1
    96    34   117    1
    97    35    41    1
    98    35   122    1
    99    35   123    1
   100    36    42    1
   101    36   120    1
   102    36   121    1
   103    37    43    1
   104    37   124    1
   105    37   125    1
   106    38    44    1
   107    38   126    1
   108    38   127    1
   109    39    45    1
   110    39   130    1
   111    39   131    1
   112    40    46    1
   113    40   128    1
   114    40   129    1
   115    41    47    1
   116    41   132    1
   117    41   133    1
   118    42    48    1
   119    42   134    1
   120    42   135    1
   121    43    49    1
   122    43   136    1
   123    43   137    1
   124    44    50    1
   125    44   138    1
   126    44   139    1
   127    45    53    1
   128    45   140    1
   129    45   143    1
   130    46    54    1
   131    46   141    1
   132    46   142    1
   133    47    51    1
   134    47   144    1
   135    47   145    1
   136    48    52    1
   137    48   146    1
   138    48   147    1
   139    49    56    1
   140    49   148    1
   141    49   149    1
   142    50    57    1
   143    50   150    1
   144    50   151    1
   145    51    58    1
   146    51   153    1
   147    51   154    1
   148    52    59    1
   149    52   152    1
   150    52   155    1
   151    53    60    1
   152    53   156    1
   153    53   159    1
   154    54    61    1
   155    54   157    1
   156    54   158    1
   157    55    62    1
   158    55    63    1
   159    55   160    1
   160    57   161    1
   161    57   162    1
   162    57   163    1
   163    58   164    1
   164    58   165    1
   165    58   169    1
   166    59   166    1
   167    59   167    1
   168    59   168    1
   169    62   170    1
   170    62   171    1
   171    63   172    1
   172    63   173    1
