@<TRIPOS>MOLECULE
IMPHY005880
 21 20 0 0 0
SMALL
GASTEIGER

@<TRIPOS>ATOM
      1 C           6.3301    0.2500    0.0000 C.2     1  UNL1       -0.0621
      2 C           7.1962   -0.2500    0.0000 C.2     1  UNL1       -0.0659
      3 C           5.4641   -0.2500    0.0000 C.2     1  UNL1       -0.0618
      4 C           8.0622    0.2500    0.0000 C.2     1  UNL1       -0.0871
      5 C           4.5981    0.2500    0.0000 C.2     1  UNL1       -0.0618
      6 C           8.9282   -0.2500    0.0000 C.3     1  UNL1       -0.0465
      7 C           3.7320   -0.2500    0.0000 C.2     1  UNL1       -0.0623
      8 C           2.8660    0.2500    0.0000 C.2     1  UNL1       -0.0689
      9 C           2.0000   -0.2500    0.0000 C.2     1  UNL1       -0.0987
     10 H           6.3301    0.8700    0.0000 H       1  UNL1        0.0617
     11 H           7.1962   -0.8700    0.0000 H       1  UNL1        0.0614
     12 H           5.4641   -0.8700    0.0000 H       1  UNL1        0.0618
     13 H           8.0622    0.8700    0.0000 H       1  UNL1        0.0569
     14 H           4.5981    0.8700    0.0000 H       1  UNL1        0.0618
     15 H           8.6182   -0.7869    0.0000 H       1  UNL1        0.0272
     16 H           9.4651   -0.5600    0.0000 H       1  UNL1        0.0272
     17 H           9.2382    0.2869    0.0000 H       1  UNL1        0.0272
     18 H           3.7320   -0.8700    0.0000 H       1  UNL1        0.0617
     19 H           2.8660    0.8700    0.0000 H       1  UNL1        0.0612
     20 H           1.4631    0.0600    0.0000 H       1  UNL1        0.0535
     21 H           2.0000   -0.8700    0.0000 H       1  UNL1        0.0535
@<TRIPOS>BOND
     1     1     2    1
     2     1     3    2
     3     1    10    1
     4     2     4    2
     5     2    11    1
     6     3     5    1
     7     3    12    1
     8     4     6    1
     9     4    13    1
    10     5     7    2
    11     5    14    1
    12     6    15    1
    13     6    16    1
    14     6    17    1
    15     7     8    1
    16     7    18    1
    17     8     9    2
    18     8    19    1
    19     9    20    1
    20     9    21    1
