@<TRIPOS>MOLECULE
IMPHY017370
 25 25 0 0 0
SMALL
GASTEIGER

@<TRIPOS>ATOM
      1 O           3.7320    0.2500    0.0000 O.3     1  UNL1       -0.4568
      2 O           2.8660    1.7500    0.0000 O.2     1  UNL1       -0.2456
      3 C           2.8660   -1.2500    0.0000 C.ar    1  UNL1       -0.0103
      4 C           2.8660   -0.2500    0.0000 C.3     1  UNL1        0.1178
      5 C           2.0000   -1.7500    0.0000 C.ar    1  UNL1       -0.0554
      6 C           3.7320   -1.7500    0.0000 C.ar    1  UNL1       -0.0554
      7 C           2.0000   -2.7500    0.0000 C.ar    1  UNL1       -0.0614
      8 C           3.7320   -2.7500    0.0000 C.ar    1  UNL1       -0.0614
      9 C           2.8660   -3.2500    0.0000 C.ar    1  UNL1       -0.0617
     10 C           3.7320    1.2500    0.0000 C.2     1  UNL1        0.3319
     11 C           4.5981    1.7500    0.0000 C.2     1  UNL1        0.0183
     12 C           4.5981    2.7500    0.0000 C.2     1  UNL1       -0.0804
     13 C           5.4641    3.2500    0.0000 C.3     1  UNL1       -0.0463
     14 H           2.6540    0.3326    0.0000 H       1  UNL1        0.0749
     15 H           2.2554   -0.3577    0.0000 H       1  UNL1        0.0749
     16 H           1.4631   -1.4400    0.0000 H       1  UNL1        0.0621
     17 H           4.2690   -1.4400    0.0000 H       1  UNL1        0.0621
     18 H           1.4631   -3.0600    0.0000 H       1  UNL1        0.0618
     19 H           4.2690   -3.0600    0.0000 H       1  UNL1        0.0618
     20 H           2.8660   -3.8700    0.0000 H       1  UNL1        0.0618
     21 H           5.1350    1.4400    0.0000 H       1  UNL1        0.0685
     22 H           4.0611    3.0600    0.0000 H       1  UNL1        0.0571
     23 H           5.7741    2.7131    0.0000 H       1  UNL1        0.0272
     24 H           6.0010    3.5600    0.0000 H       1  UNL1        0.0272
     25 H           5.1541    3.7869    0.0000 H       1  UNL1        0.0272
@<TRIPOS>BOND
     1     1     4    1
     2     1    10    1
     3     2    10    2
     4     3     4    1
     5     3     5   ar
     6     3     6   ar
     7     4    14    1
     8     4    15    1
     9     5     7   ar
    10     5    16    1
    11     6     8   ar
    12     6    17    1
    13     7     9   ar
    14     7    18    1
    15     8     9   ar
    16     8    19    1
    17     9    20    1
    18    10    11    1
    19    11    12    2
    20    11    21    1
    21    12    13    1
    22    12    22    1
    23    13    23    1
    24    13    24    1
    25    13    25    1
