@<TRIPOS>MOLECULE
IMPHY013052
 18 19 0 0 0
SMALL
GASTEIGER

@<TRIPOS>ATOM
      1 F           5.4562   -1.7552    0.0000 F       1  UNL1       -0.2048
      2 F           5.4387    1.7552    0.0000 F       1  UNL1       -0.2048
      3 C           4.1931   -0.5063    0.0000 C.ar    1  UNL1        0.0201
      4 C           4.1881    0.4937    0.0000 C.ar    1  UNL1        0.0201
      5 C           5.1408   -0.8063    0.0000 C.ar    1  UNL1        0.1339
      6 C           5.1328    0.8032    0.0000 C.ar    1  UNL1        0.1339
      7 C           5.7204    0.0014    0.0000 C.ar    1  UNL1        0.0100
      8 C           3.4144   -1.1336    0.0000 C.ar    1  UNL1       -0.0512
      9 C           3.4032    1.1133    0.0000 C.ar    1  UNL1       -0.0512
     10 C           2.4384   -0.9160    0.0000 C.ar    1  UNL1       -0.0611
     11 C           2.4294    0.8859    0.0000 C.ar    1  UNL1       -0.0611
     12 C           2.0000   -0.0172    0.0000 C.ar    1  UNL1       -0.0617
     13 H           6.3404    0.0045    0.0000 H       1  UNL1        0.0675
     14 H           3.5554   -1.7374    0.0000 H       1  UNL1        0.0624
     15 H           3.5381    1.7184    0.0000 H       1  UNL1        0.0624
     16 H           2.0542   -1.4026    0.0000 H       1  UNL1        0.0618
     17 H           2.0404    1.3687    0.0000 H       1  UNL1        0.0618
     18 H           1.3800   -0.0203    0.0000 H       1  UNL1        0.0618
@<TRIPOS>BOND
     1     1     5    1
     2     2     6    1
     3     3     4    1
     4     3     5   ar
     5     3     8   ar
     6     4     6   ar
     7     4     9   ar
     8     5     7   ar
     9     6     7   ar
    10     7    13    1
    11     8    10   ar
    12     8    14    1
    13     9    11   ar
    14     9    15    1
    15    10    12   ar
    16    10    16    1
    17    11    12   ar
    18    11    17    1
    19    12    18    1
