@<TRIPOS>MOLECULE
IMPHY017750
 15 15 0 0 0
SMALL
GASTEIGER

@<TRIPOS>ATOM
      1 O           3.7601   -0.7694    0.0000 O.3     1  UNL1       -0.4616
      2 O           2.0000   -0.4907    0.0000 O.2     1  UNL1       -0.2508
      3 C           4.5691   -0.1816    0.0000 C.3     1  UNL1        0.1008
      4 C           4.2601    0.7694    0.0000 C.3     1  UNL1       -0.0059
      5 C           3.2601    0.7694    0.0000 C.3     1  UNL1        0.0483
      6 C           5.5202   -0.4907    0.0000 C.3     1  UNL1       -0.0277
      7 C           2.9511   -0.1816    0.0000 C.2     1  UNL1        0.3074
      8 H           4.7021   -1.0212    0.0000 H       1  UNL1        0.0731
      9 H           4.8665    0.8983    0.0000 H       1  UNL1        0.0306
     10 H           4.1953    1.3860    0.0000 H       1  UNL1        0.0306
     11 H           3.3249    1.3860    0.0000 H       1  UNL1        0.0379
     12 H           2.6536    0.8983    0.0000 H       1  UNL1        0.0379
     13 H           5.3286   -1.0803    0.0000 H       1  UNL1        0.0265
     14 H           6.1098   -0.6822    0.0000 H       1  UNL1        0.0265
     15 H           5.7117    0.0990    0.0000 H       1  UNL1        0.0265
@<TRIPOS>BOND
     1     1     3    1
     2     1     7    1
     3     2     7    2
     4     3     4    1
     5     3     6    1
     6     3     8    1
     7     4     5    1
     8     4     9    1
     9     4    10    1
    10     5     7    1
    11     5    11    1
    12     5    12    1
    13     6    13    1
    14     6    14    1
    15     6    15    1
