@<TRIPOS>MOLECULE
IMPHY000710
 51 54 0 0 0
SMALL
GASTEIGER

@<TRIPOS>ATOM
      1 O           9.6654   -0.2259    0.0000 O.3     1  UNL1       -0.4814
      2 O           6.0682   -0.1481    0.0000 O.2     1  UNL1       -0.4539
      3 O           7.8167    2.8864    0.0000 O.3     1  UNL1       -0.5052
      4 O           6.0682    2.8519    0.0000 O.2     1  UNL1       -0.2863
      5 O           2.5381   -0.1723    0.0000 O.3     1  UNL1       -0.5030
      6 O           2.5381    1.8760    0.0000 O.3     1  UNL1       -0.5033
      7 C          10.6092    0.3094    0.0000 C.3     1  UNL1        0.1235
      8 C           8.7343    1.3727    0.0000 C.ar    1  UNL1        0.0588
      9 C           8.7343    0.3310    0.0000 C.ar    1  UNL1        0.1359
     10 C           6.9343    1.3518    0.0000 C.ar    1  UNL1        0.1067
     11 C           6.9343    0.3519    0.0000 C.ar    1  UNL1        0.1463
     12 C          10.6092    1.3944    0.0000 C.2     1  UNL1       -0.0408
     13 C           7.8282    1.8865    0.0000 C.ar    1  UNL1        0.1418
     14 C           5.2022    0.3519    0.0000 C.ar    1  UNL1        0.1464
     15 C           5.2022    1.3518    0.0000 C.ar    1  UNL1        0.0687
     16 C           7.8282   -0.1828    0.0000 C.ar    1  UNL1        0.0240
     17 C           9.6654    1.9296    0.0000 C.2     1  UNL1       -0.0478
     18 C          11.6092    0.3055    0.0000 C.3     1  UNL1       -0.0215
     19 C          11.1059   -0.5586    0.0000 C.3     1  UNL1       -0.0215
     20 C           6.0682    1.8518    0.0000 C.ar    1  UNL1        0.2039
     21 C           4.3083   -0.1828    0.0000 C.ar    1  UNL1        0.0443
     22 C           4.3198   -1.1827    0.0000 C.3     1  UNL1       -0.0021
     23 C           4.3083    1.8865    0.0000 C.ar    1  UNL1       -0.0021
     24 C           3.4022    0.3310    0.0000 C.ar    1  UNL1        0.1653
     25 C           3.4022    1.3727    0.0000 C.ar    1  UNL1        0.1594
     26 C           3.4597   -1.6927    0.0000 C.2     1  UNL1       -0.0807
     27 C           3.4712   -2.6927    0.0000 C.2     1  UNL1       -0.0793
     28 C           2.6110   -3.2026    0.0000 C.3     1  UNL1       -0.0440
     29 C           4.3430   -3.1826    0.0000 C.3     1  UNL1       -0.0440
     30 H          11.1450    1.7064    0.0000 H       1  UNL1        0.0611
     31 H           7.8210   -0.8028    0.0000 H       1  UNL1        0.0691
     32 H           9.6583    2.5496    0.0000 H       1  UNL1        0.0624
     33 H          11.6068   -0.3145    0.0000 H       1  UNL1        0.0271
     34 H          12.2292    0.3031    0.0000 H       1  UNL1        0.0271
     35 H          11.6116    0.9255    0.0000 H       1  UNL1        0.0271
     36 H          10.5678   -0.8665    0.0000 H       1  UNL1        0.0271
     37 H          11.4138   -1.0967    0.0000 H       1  UNL1        0.0271
     38 H          11.6440   -0.2507    0.0000 H       1  UNL1        0.0271
     39 H           4.5386   -1.7629    0.0000 H       1  UNL1        0.0358
     40 H           4.9291   -1.0680    0.0000 H       1  UNL1        0.0358
     41 H           4.3154    2.5065    0.0000 H       1  UNL1        0.0663
     42 H           2.9192   -1.3889    0.0000 H       1  UNL1        0.0575
     43 H           8.3500    3.2026    0.0000 H       1  UNL1        0.2922
     44 H           2.0000    0.1356    0.0000 H       1  UNL1        0.2923
     45 H           2.5405    2.4960    0.0000 H       1  UNL1        0.2923
     46 H           2.2948   -2.6693    0.0000 H       1  UNL1        0.0274
     47 H           2.0777   -3.5188    0.0000 H       1  UNL1        0.0274
     48 H           4.0392   -3.7231    0.0000 H       1  UNL1        0.0274
     49 H           4.8835   -3.4864    0.0000 H       1  UNL1        0.0274
     50 H           4.6468   -2.6421    0.0000 H       1  UNL1        0.0274
     51 H           2.9272   -3.7360    0.0000 H       1  UNL1        0.0274
@<TRIPOS>BOND
     1     1     7    1
     2     1     9    1
     3     2    11   ar
     4     2    14   ar
     5     3    13    1
     6     3    43    1
     7     4    20    2
     8     5    24    1
     9     5    44    1
    10     6    25    1
    11     6    45    1
    12     7    12    1
    13     7    18    1
    14     7    19    1
    15     8     9   ar
    16     8    13   ar
    17     8    17    1
    18     9    16   ar
    19    10    11   ar
    20    10    13   ar
    21    10    20   ar
    22    11    16   ar
    23    12    17    2
    24    12    30    1
    25    14    15   ar
    26    14    21   ar
    27    15    20   ar
    28    15    23   ar
    29    16    31    1
    30    17    32    1
    31    18    33    1
    32    18    34    1
    33    18    35    1
    34    19    36    1
    35    19    37    1
    36    19    38    1
    37    21    22    1
    38    21    24   ar
    39    22    26    1
    40    22    39    1
    41    22    40    1
    42    23    25   ar
    43    23    41    1
    44    24    25   ar
    45    26    27    2
    46    26    42    1
    47    27    28    1
    48    27    29    1
    49    28    46    1
    50    28    47    1
    51    28    51    1
    52    29    48    1
    53    29    49    1
    54    29    50    1
