@<TRIPOS>MOLECULE
IMPHY000919
 81 85 0 0 0
SMALL
GASTEIGER

@<TRIPOS>ATOM
      1 O           6.8671   -2.7857    0.0000 O.3     1  UNL1       -0.3400
      2 O           5.1350   -2.7857    0.0000 O.3     1  UNL1       -0.3405
      3 O           6.8671    0.2143    0.0000 O.3     1  UNL1       -0.3313
      4 O           5.1350   -1.7857    0.0000 O.3     1  UNL1       -0.3865
      5 O           8.5991   -1.7857    0.0000 O.3     1  UNL1       -0.3829
      6 O           8.5991    0.2143    0.0000 O.3     1  UNL1       -0.4515
      7 O           6.8671   -4.7857    0.0000 O.3     1  UNL1       -0.3841
      8 O           5.1350   -5.7857    0.0000 O.3     1  UNL1       -0.3864
      9 O           3.4030   -4.7857    0.0000 O.3     1  UNL1       -0.3865
     10 O           5.1350    1.2143    0.0000 O.3     1  UNL1       -0.3924
     11 O           2.5369   -3.2857    0.0000 O.3     1  UNL1       -0.3924
     12 O           9.4651    2.7143    0.0000 O.2     1  UNL1       -0.1997
     13 O           5.9629    2.7112    0.0000 O.3     1  UNL1       -0.5057
     14 O          11.1972   -1.2857    0.0000 O.3     1  UNL1       -0.4913
     15 O          12.9292    1.7143    0.0000 O.3     1  UNL1       -0.4913
     16 O           7.7210    5.7836    0.0000 O.3     1  UNL1       -0.5063
     17 O          12.9292   -0.2857    0.0000 O.3     1  UNL1       -0.5009
     18 C           6.8671   -1.7857    0.0000 C.3     1  UNL1        0.1217
     19 C           6.0010   -1.2857    0.0000 C.3     1  UNL1        0.1123
     20 C           7.7331   -1.2857    0.0000 C.3     1  UNL1        0.1458
     21 C           6.0010   -3.2857    0.0000 C.3     1  UNL1        0.1884
     22 C           6.0010   -0.2857    0.0000 C.3     1  UNL1        0.1140
     23 C           6.0010   -4.2857    0.0000 C.3     1  UNL1        0.1341
     24 C           5.1350   -4.7857    0.0000 C.3     1  UNL1        0.1141
     25 C           4.2690   -4.2857    0.0000 C.3     1  UNL1        0.1119
     26 C           7.7331   -0.2857    0.0000 C.3     1  UNL1        0.2312
     27 C           4.2690   -3.2857    0.0000 C.3     1  UNL1        0.1130
     28 C           5.1350    0.2143    0.0000 C.3     1  UNL1        0.0731
     29 C           3.4030   -2.7857    0.0000 C.3     1  UNL1        0.0730
     30 C           8.5991    1.2143    0.0000 C.ar    1  UNL1        0.2288
     31 C           9.4651    1.7143    0.0000 C.ar    1  UNL1        0.4047
     32 C           7.7331    1.7143    0.0000 C.ar    1  UNL1        0.0093
     33 C           7.7331    2.7143    0.0000 C.ar    1  UNL1        0.1241
     34 C          10.3312    1.2143    0.0000 C.ar    1  UNL1        0.0899
     35 C           8.5991    3.2143    0.0000 C.ar    1  UNL1        0.3708
     36 C           6.8231    3.2212    0.0000 C.ar    1  UNL1        0.1366
     37 C           8.6152    4.2558    0.0000 C.ar    1  UNL1        0.0847
     38 C          11.1972    1.7143    0.0000 C.ar    1  UNL1        0.0002
     39 C          10.3312    0.2143    0.0000 C.ar    1  UNL1        0.0002
     40 C           6.8151    4.2628    0.0000 C.ar    1  UNL1        0.0225
     41 C           7.7171    4.7836    0.0000 C.ar    1  UNL1        0.1293
     42 C          11.1972   -0.2857    0.0000 C.ar    1  UNL1        0.1658
     43 C          12.0632    1.2143    0.0000 C.ar    1  UNL1        0.1658
     44 C          12.0632    0.2143    0.0000 C.ar    1  UNL1        0.2011
     45 C          12.0632   -1.7857    0.0000 C.3     1  UNL1        0.0790
     46 C          12.9292    2.7143    0.0000 C.3     1  UNL1        0.0790
     47 H           7.4040   -2.0957    0.0000 H       1  UNL1        0.0652
     48 H           6.0010   -1.9057    0.0000 H       1  UNL1        0.0647
     49 H           8.2700   -0.9757    0.0000 H       1  UNL1        0.0683
     50 H           6.0010   -2.6657    0.0000 H       1  UNL1        0.0938
     51 H           6.0010    0.3343    0.0000 H       1  UNL1        0.0647
     52 H           6.0010   -4.9057    0.0000 H       1  UNL1        0.0671
     53 H           4.5981   -5.0957    0.0000 H       1  UNL1        0.0648
     54 H           3.7320   -3.9757    0.0000 H       1  UNL1        0.0647
     55 H           7.7331    0.3343    0.0000 H       1  UNL1        0.1084
     56 H           4.2690   -2.6657    0.0000 H       1  UNL1        0.0647
     57 H           4.5244    0.3220    0.0000 H       1  UNL1        0.0584
     58 H           4.9230   -0.3683    0.0000 H       1  UNL1        0.0584
     59 H           3.8015   -2.3107    0.0000 H       1  UNL1        0.0584
     60 H           3.0044   -2.3107    0.0000 H       1  UNL1        0.0584
     61 H           4.5981   -1.4757    0.0000 H       1  UNL1        0.2100
     62 H           9.1360   -1.4757    0.0000 H       1  UNL1        0.2102
     63 H           6.8671   -5.4057    0.0000 H       1  UNL1        0.2101
     64 H           4.5981   -6.0957    0.0000 H       1  UNL1        0.2100
     65 H           3.4030   -5.4057    0.0000 H       1  UNL1        0.2100
     66 H           4.5981    1.5243    0.0000 H       1  UNL1        0.2095
     67 H           2.0000   -2.9757    0.0000 H       1  UNL1        0.2095
     68 H           7.1962    1.4043    0.0000 H       1  UNL1        0.0667
     69 H           9.1557    4.5596    0.0000 H       1  UNL1        0.0749
     70 H          11.1972    2.3343    0.0000 H       1  UNL1        0.0664
     71 H           9.7942   -0.0957    0.0000 H       1  UNL1        0.0664
     72 H           6.2769    4.5707    0.0000 H       1  UNL1        0.0691
     73 H           5.4224    3.0150    0.0000 H       1  UNL1        0.2922
     74 H           7.1852    6.0957    0.0000 H       1  UNL1        0.2921
     75 H          13.4662    0.0243    0.0000 H       1  UNL1        0.2924
     76 H          11.7532   -2.3226    0.0000 H       1  UNL1        0.0660
     77 H          12.6002   -2.0957    0.0000 H       1  UNL1        0.0660
     78 H          12.3732   -1.2487    0.0000 H       1  UNL1        0.0660
     79 H          13.5492    2.7143    0.0000 H       1  UNL1        0.0660
     80 H          12.9292    3.3343    0.0000 H       1  UNL1        0.0660
     81 H          12.3092    2.7143    0.0000 H       1  UNL1        0.0660
@<TRIPOS>UNITY_ATOM_ATTR
12 1
charge 1
@<TRIPOS>BOND
     1     1    18    1
     2    21     1    1
     3     2    21    1
     4     2    27    1
     5     3    22    1
     6     3    26    1
     7    19     4    1
     8     4    61    1
     9     5    20    1
    10     5    62    1
    11    26     6    1
    12     6    30    1
    13    23     7    1
    14     7    63    1
    15     8    24    1
    16     8    64    1
    17    25     9    1
    18     9    65    1
    19    10    28    1
    20    10    66    1
    21    11    29    1
    22    11    67    1
    23    12    31   ar
    24    12    35   ar
    25    13    36    1
    26    13    73    1
    27    14    42    1
    28    14    45    1
    29    15    43    1
    30    15    46    1
    31    16    41    1
    32    16    74    1
    33    17    44    1
    34    17    75    1
    35    18    19    1
    36    18    20    1
    37    18    47    1
    38    19    22    1
    39    19    48    1
    40    20    26    1
    41    20    49    1
    42    21    23    1
    43    21    50    1
    44    22    28    1
    45    22    51    1
    46    23    24    1
    47    23    52    1
    48    24    25    1
    49    24    53    1
    50    25    27    1
    51    25    54    1
    52    26    55    1
    53    27    29    1
    54    27    56    1
    55    28    57    1
    56    28    58    1
    57    29    59    1
    58    29    60    1
    59    30    31   ar
    60    30    32   ar
    61    31    34    1
    62    32    33   ar
    63    32    68    1
    64    33    35   ar
    65    33    36   ar
    66    34    38   ar
    67    34    39   ar
    68    35    37   ar
    69    36    40   ar
    70    37    41   ar
    71    37    69    1
    72    38    43   ar
    73    38    70    1
    74    39    42   ar
    75    39    71    1
    76    40    41   ar
    77    40    72    1
    78    42    44   ar
    79    43    44   ar
    80    45    76    1
    81    45    77    1
    82    45    78    1
    83    46    79    1
    84    46    80    1
    85    46    81    1
