@<TRIPOS>MOLECULE
IMPHY007726
 144 151 0 0 0
SMALL
GASTEIGER

@<TRIPOS>ATOM
      1 O           7.1962   -3.1527    0.0000 O.3     1  UNL1       -0.3449
      2 O           8.9500    6.1267    0.0000 O.3     1  UNL1       -0.4318
      3 O           9.8333    4.6368    0.0000 O.2     1  UNL1       -0.2501
      4 O           5.4641   -3.1527    0.0000 O.3     1  UNL1       -0.3405
      5 O           7.1962   -5.1527    0.0000 O.3     1  UNL1       -0.3841
      6 O          10.6819    6.1467    0.0000 O.3     1  UNL1       -0.3312
      7 O           5.4641   -6.1527    0.0000 O.3     1  UNL1       -0.3864
      8 O           3.7320   -5.1527    0.0000 O.3     1  UNL1       -0.3401
      9 O           8.9268    8.1266    0.0000 O.3     1  UNL1       -0.3829
     10 O          10.6472    9.1465    0.0000 O.3     1  UNL1       -0.3864
     11 O           3.7320   -2.1527    0.0000 O.3     1  UNL1       -0.3924
     12 O          12.3907    8.1666    0.0000 O.3     1  UNL1       -0.3865
     13 O           4.5981   -6.6527    0.0000 O.3     1  UNL1       -0.3405
     14 O          13.2740    6.6768    0.0000 O.3     1  UNL1       -0.3924
     15 O           2.0000   -6.1527    0.0000 O.3     1  UNL1       -0.3841
     16 O           2.0000   -8.1527    0.0000 O.3     1  UNL1       -0.3864
     17 O           3.7320   -9.1527    0.0000 O.3     1  UNL1       -0.3865
     18 O           6.3301   -7.6527    0.0000 O.3     1  UNL1       -0.3924
     19 C           8.0972    1.5475    0.0000 C.3     1  UNL1       -0.0194
     20 C           7.2331    1.0442    0.0000 C.3     1  UNL1       -0.0257
     21 C           7.2211    0.0026    0.0000 C.3     1  UNL1       -0.0250
     22 C           8.0934    2.5475    0.0000 C.3     1  UNL1       -0.0051
     23 C           8.1211   -0.5217    0.0000 C.3     1  UNL1       -0.0278
     24 C           9.0092    1.0442    0.0000 C.3     1  UNL1       -0.0463
     25 C           8.1337   -1.6066    0.0000 C.3     1  UNL1       -0.0052
     26 C           9.0212    0.0026    0.0000 C.3     1  UNL1       -0.0486
     27 C           7.2254    3.0442    0.0000 C.2     1  UNL1       -0.0629
     28 C           7.2053    4.0856    0.0000 C.3     1  UNL1       -0.0031
     29 C           6.3652    1.5408    0.0000 C.3     1  UNL1       -0.0306
     30 C           6.2712   -0.5217    0.0000 C.3     1  UNL1       -0.0447
     31 C           9.0014    3.0578    0.0000 C.3     1  UNL1       -0.0424
     32 C           8.1013    4.6168    0.0000 C.3     1  UNL1        0.0744
     33 C           9.0813    1.7249    0.0000 C.3     1  UNL1       -0.0585
     34 C           7.1962   -2.1527    0.0000 C.3     1  UNL1        0.0672
     35 C           9.0054    4.0995    0.0000 C.3     1  UNL1       -0.0359
     36 C           6.3570    0.5059    0.0000 C.3     1  UNL1       -0.0590
     37 C           6.3613    2.5408    0.0000 C.2     1  UNL1       -0.0836
     38 C           6.2586   -1.6066    0.0000 C.3     1  UNL1       -0.0255
     39 C           9.0788    2.3776    0.0000 C.3     1  UNL1       -0.0553
     40 C           6.2514    4.6025    0.0000 C.3     1  UNL1       -0.0403
     41 C           8.1055    5.7018    0.0000 C.3     1  UNL1       -0.0362
     42 C           6.2305    5.6873    0.0000 C.3     1  UNL1       -0.0343
     43 C           9.1337   -1.5989    0.0000 C.3     1  UNL1       -0.0572
     44 C           8.6404   -2.4688    0.0000 C.3     1  UNL1       -0.0572
     45 C           7.1638    6.2406    0.0000 C.3     1  UNL1       -0.0468
     46 C           8.9615    5.1268    0.0000 C.2     1  UNL1        0.3161
     47 C           5.7172    6.5455    0.0000 C.3     1  UNL1       -0.0598
     48 C           5.2306    5.6719    0.0000 C.3     1  UNL1       -0.0598
     49 C           6.3301   -3.6527    0.0000 C.3     1  UNL1        0.1882
     50 C           6.3301   -4.6527    0.0000 C.3     1  UNL1        0.1341
     51 C           9.8101    6.6367    0.0000 C.3     1  UNL1        0.2337
     52 C           5.4641   -5.1527    0.0000 C.3     1  UNL1        0.1144
     53 C           4.5981   -3.6527    0.0000 C.3     1  UNL1        0.1134
     54 C           4.5981   -4.6527    0.0000 C.3     1  UNL1        0.1184
     55 C           9.7986    7.6366    0.0000 C.3     1  UNL1        0.1455
     56 C          10.6588    8.1466    0.0000 C.3     1  UNL1        0.1152
     57 C           3.7320   -3.1527    0.0000 C.3     1  UNL1        0.0730
     58 C          11.5421    6.6567    0.0000 C.3     1  UNL1        0.1140
     59 C          11.5305    7.6566    0.0000 C.3     1  UNL1        0.1120
     60 C          12.4138    6.1668    0.0000 C.3     1  UNL1        0.0731
     61 C           3.7320   -6.1527    0.0000 C.3     1  UNL1        0.1884
     62 C           2.8660   -6.6527    0.0000 C.3     1  UNL1        0.1341
     63 C           2.8660   -7.6527    0.0000 C.3     1  UNL1        0.1141
     64 C           4.5981   -7.6527    0.0000 C.3     1  UNL1        0.1130
     65 C           3.7320   -8.1527    0.0000 C.3     1  UNL1        0.1119
     66 C           5.4641   -8.1527    0.0000 C.3     1  UNL1        0.0730
     67 H           7.7689    0.7321    0.0000 H       1  UNL1        0.0315
     68 H           8.6605   -0.8275    0.0000 H       1  UNL1        0.0312
     69 H           9.6212    0.9451    0.0000 H       1  UNL1        0.0271
     70 H           9.2114    1.6302    0.0000 H       1  UNL1        0.0271
     71 H           9.2370   -0.5786    0.0000 H       1  UNL1        0.0268
     72 H           9.6308    0.1158    0.0000 H       1  UNL1        0.0268
     73 H           6.6757    3.7632    0.0000 H       1  UNL1        0.0357
     74 H           5.7542    1.6461    0.0000 H       1  UNL1        0.0310
     75 H           6.1554    0.9574    0.0000 H       1  UNL1        0.0310
     76 H           6.0689    0.0644    0.0000 H       1  UNL1        0.0271
     77 H           5.6591   -0.6207    0.0000 H       1  UNL1        0.0271
     78 H           9.2082    2.4734    0.0000 H       1  UNL1        0.0274
     79 H           9.6127    3.1616    0.0000 H       1  UNL1        0.0274
     80 H           9.1914    1.1148    0.0000 H       1  UNL1        0.0235
     81 H           9.6915    1.8350    0.0000 H       1  UNL1        0.0235
     82 H           8.9713    2.3351    0.0000 H       1  UNL1        0.0235
     83 H           7.7337   -2.4617    0.0000 H       1  UNL1        0.0602
     84 H           9.6159    3.9910    0.0000 H       1  UNL1        0.0276
     85 H           9.2167    4.6823    0.0000 H       1  UNL1        0.0276
     86 H           6.6690    1.0417    0.0000 H       1  UNL1        0.0235
     87 H           5.8212    0.8180    0.0000 H       1  UNL1        0.0235
     88 H           6.0449   -0.0298    0.0000 H       1  UNL1        0.0235
     89 H           5.8232    2.8487    0.0000 H       1  UNL1        0.0572
     90 H           5.6490   -1.4935    0.0000 H       1  UNL1        0.0290
     91 H           6.0428   -2.1878    0.0000 H       1  UNL1        0.0290
     92 H           8.9735    1.7666    0.0000 H       1  UNL1        0.0238
     93 H           9.6898    2.2723    0.0000 H       1  UNL1        0.0238
     94 H           9.1841    2.9886    0.0000 H       1  UNL1        0.0238
     95 H           5.6386    4.6968    0.0000 H       1  UNL1        0.0276
     96 H           6.0536    4.0149    0.0000 H       1  UNL1        0.0276
     97 H           8.7160    5.5933    0.0000 H       1  UNL1        0.0276
     98 H           8.3168    6.2847    0.0000 H       1  UNL1        0.0276
     99 H           8.1058   -2.7829    0.0000 H       1  UNL1        0.0236
    100 H           8.9545   -3.0033    0.0000 H       1  UNL1        0.0236
    101 H           9.1749   -2.1546    0.0000 H       1  UNL1        0.0236
    102 H           9.1384   -2.2189    0.0000 H       1  UNL1        0.0236
    103 H           9.7536   -1.5941    0.0000 H       1  UNL1        0.0236
    104 H           9.1289   -0.9789    0.0000 H       1  UNL1        0.0236
    105 H           7.5593    6.7182    0.0000 H       1  UNL1        0.0271
    106 H           6.7610    6.7120    0.0000 H       1  UNL1        0.0271
    107 H           6.2493    6.8638    0.0000 H       1  UNL1        0.0235
    108 H           5.3990    7.0776    0.0000 H       1  UNL1        0.0235
    109 H           5.1851    6.2273    0.0000 H       1  UNL1        0.0235
    110 H           5.2211    6.2918    0.0000 H       1  UNL1        0.0235
    111 H           4.6107    5.6624    0.0000 H       1  UNL1        0.0235
    112 H           5.2402    5.0520    0.0000 H       1  UNL1        0.0235
    113 H           6.3301   -2.8027    0.0000 H       1  UNL1        0.0937
    114 H           6.3301   -5.5027    0.0000 H       1  UNL1        0.0671
    115 H           9.0692    7.0532    0.0000 H       1  UNL1        0.1085
    116 H           4.7280   -5.5777    0.0000 H       1  UNL1        0.0648
    117 H           4.5981   -2.8027    0.0000 H       1  UNL1        0.0647
    118 H           3.8620   -4.2277    0.0000 H       1  UNL1        0.0651
    119 H           9.7914    8.2566    0.0000 H       1  UNL1        0.0683
    120 H           7.7331   -4.8427    0.0000 H       1  UNL1        0.2101
    121 H          11.3899    8.5801    0.0000 H       1  UNL1        0.0648
    122 H           3.1215   -3.0451    0.0000 H       1  UNL1        0.0584
    123 H           3.5200   -3.7353    0.0000 H       1  UNL1        0.0584
    124 H          11.5519    5.8068    0.0000 H       1  UNL1        0.0647
    125 H          12.2715    7.2402    0.0000 H       1  UNL1        0.0647
    126 H           6.0010   -6.4627    0.0000 H       1  UNL1        0.2100
    127 H           8.9197    8.7465    0.0000 H       1  UNL1        0.2102
    128 H          12.0208    5.6872    0.0000 H       1  UNL1        0.0584
    129 H          12.8178    5.6965    0.0000 H       1  UNL1        0.0584
    130 H           2.9959   -5.7277    0.0000 H       1  UNL1        0.0938
    131 H          11.1805    9.4627    0.0000 H       1  UNL1        0.2100
    132 H           3.1951   -1.8427    0.0000 H       1  UNL1        0.2095
    133 H          12.3835    8.7866    0.0000 H       1  UNL1        0.2100
    134 H           3.6022   -7.0777    0.0000 H       1  UNL1        0.0671
    135 H           2.8660   -8.5027    0.0000 H       1  UNL1        0.0648
    136 H          13.8145    6.3730    0.0000 H       1  UNL1        0.2095
    137 H           5.3342   -7.2277    0.0000 H       1  UNL1        0.0647
    138 H           4.4682   -8.5777    0.0000 H       1  UNL1        0.0647
    139 H           2.0000   -5.5327    0.0000 H       1  UNL1        0.2101
    140 H           5.0656   -8.6277    0.0000 H       1  UNL1        0.0584
    141 H           5.8626   -8.6277    0.0000 H       1  UNL1        0.0584
    142 H           2.0000   -8.7727    0.0000 H       1  UNL1        0.2100
    143 H           4.2690   -9.4627    0.0000 H       1  UNL1        0.2100
    144 H           6.8671   -7.9627    0.0000 H       1  UNL1        0.2095
@<TRIPOS>BOND
     1     1    34    1
     2     1    49    1
     3     2    46    1
     4     2    51    1
     5     3    46    2
     6     4    49    1
     7     4    53    1
     8     5    50    1
     9     5   120    1
    10     6    51    1
    11     6    58    1
    12     7    52    1
    13     7   126    1
    14     8    54    1
    15     8    61    1
    16     9    55    1
    17     9   127    1
    18    10    56    1
    19    10   131    1
    20    11    57    1
    21    11   132    1
    22    12    59    1
    23    12   133    1
    24    13    61    1
    25    13    64    1
    26    14    60    1
    27    14   136    1
    28    15    62    1
    29    15   139    1
    30    16    63    1
    31    16   142    1
    32    17    65    1
    33    17   143    1
    34    18    66    1
    35    18   144    1
    36    19    20    1
    37    19    22    1
    38    19    24    1
    39    19    33    1
    40    20    21    1
    41    20    29    1
    42    20    67    1
    43    21    23    1
    44    21    30    1
    45    21    36    1
    46    22    27    1
    47    22    31    1
    48    22    39    1
    49    23    25    1
    50    23    26    1
    51    23    68    1
    52    24    26    1
    53    24    69    1
    54    24    70    1
    55    25    34    1
    56    25    43    1
    57    25    44    1
    58    26    71    1
    59    26    72    1
    60    27    28    1
    61    27    37    2
    62    28    32    1
    63    28    40    1
    64    28    73    1
    65    29    37    1
    66    29    74    1
    67    29    75    1
    68    30    38    1
    69    30    76    1
    70    30    77    1
    71    31    35    1
    72    31    78    1
    73    31    79    1
    74    32    35    1
    75    32    41    1
    76    32    46    1
    77    33    80    1
    78    33    81    1
    79    33    82    1
    80    34    38    1
    81    34    83    1
    82    35    84    1
    83    35    85    1
    84    36    86    1
    85    36    87    1
    86    36    88    1
    87    37    89    1
    88    38    90    1
    89    38    91    1
    90    39    92    1
    91    39    93    1
    92    39    94    1
    93    40    42    1
    94    40    95    1
    95    40    96    1
    96    41    45    1
    97    41    97    1
    98    41    98    1
    99    42    45    1
   100    42    47    1
   101    42    48    1
   102    43   102    1
   103    43   103    1
   104    43   104    1
   105    44    99    1
   106    44   100    1
   107    44   101    1
   108    45   105    1
   109    45   106    1
   110    47   107    1
   111    47   108    1
   112    47   109    1
   113    48   110    1
   114    48   111    1
   115    48   112    1
   116    49    50    1
   117    49   113    1
   118    50    52    1
   119    50   114    1
   120    51    55    1
   121    51   115    1
   122    52    54    1
   123    52   116    1
   124    53    54    1
   125    53    57    1
   126    53   117    1
   127    54   118    1
   128    55    56    1
   129    55   119    1
   130    56    59    1
   131    56   121    1
   132    57   122    1
   133    57   123    1
   134    58    59    1
   135    58    60    1
   136    58   124    1
   137    59   125    1
   138    60   128    1
   139    60   129    1
   140    61    62    1
   141    61   130    1
   142    62    63    1
   143    62   134    1
   144    63    65    1
   145    63   135    1
   146    64    65    1
   147    64    66    1
   148    64   137    1
   149    65   138    1
   150    66   140    1
   151    66   141    1
