@<TRIPOS>MOLECULE
IMPHY003556
 51 52 0 0 0
SMALL
GASTEIGER

@<TRIPOS>ATOM
      1 O           5.4641    0.3246    0.0000 O.3     1  UNL1       -0.4561
      2 O           8.0622   -1.1754    0.0000 O.2     1  UNL1       -0.2867
      3 O           4.5981   -1.1754    0.0000 O.2     1  UNL1       -0.2508
      4 O           8.0622    2.8246    0.0000 O.2     1  UNL1       -0.2871
      5 O           9.8106   -1.2100    0.0000 O.3     1  UNL1       -0.5060
      6 O           9.8106    2.8592    0.0000 O.3     1  UNL1       -0.5060
      7 C           6.3301   -0.1754    0.0000 C.3     1  UNL1        0.1351
      8 C           7.1962    0.3246    0.0000 C.2     1  UNL1        0.0440
      9 C           6.3301   -1.1754    0.0000 C.3     1  UNL1        0.0072
     10 C           2.8660   -0.1754    0.0000 C.3     1  UNL1       -0.0367
     11 C           3.7320    0.3246    0.0000 C.3     1  UNL1        0.0473
     12 C           8.0622   -0.1754    0.0000 C.2     1  UNL1        0.1971
     13 C           8.9282    0.3246    0.0000 C.ar    1  UNL1        0.0777
     14 C           8.9282    1.3246    0.0000 C.ar    1  UNL1        0.0773
     15 C           7.1962    1.3246    0.0000 C.2     1  UNL1       -0.0038
     16 C           4.5981   -0.1754    0.0000 C.2     1  UNL1        0.3079
     17 C           8.0622    1.8246    0.0000 C.2     1  UNL1        0.1909
     18 C           5.4641   -1.6754    0.0000 C.2     1  UNL1       -0.0815
     19 C           2.0000    0.3246    0.0000 C.3     1  UNL1       -0.0622
     20 C           2.8660   -1.1754    0.0000 C.3     1  UNL1       -0.0622
     21 C           9.8222   -0.2101    0.0000 C.ar    1  UNL1        0.1286
     22 C           9.8222    1.8593    0.0000 C.ar    1  UNL1        0.1286
     23 C           5.4641   -2.6754    0.0000 C.2     1  UNL1       -0.0795
     24 C          10.7282    0.3038    0.0000 C.ar    1  UNL1       -0.0160
     25 C          10.7282    1.3454    0.0000 C.ar    1  UNL1       -0.0160
     26 C           4.5981   -3.1754    0.0000 C.3     1  UNL1       -0.0440
     27 C           6.3301   -3.1754    0.0000 C.3     1  UNL1       -0.0440
     28 H           5.7932   -0.4854    0.0000 H       1  UNL1        0.0789
     29 H           6.5422   -1.7580    0.0000 H       1  UNL1        0.0347
     30 H           6.9407   -1.0677    0.0000 H       1  UNL1        0.0347
     31 H           2.8660    0.4446    0.0000 H       1  UNL1        0.0301
     32 H           4.1306    0.7996    0.0000 H       1  UNL1        0.0380
     33 H           3.3335    0.7996    0.0000 H       1  UNL1        0.0380
     34 H           6.6592    1.6346    0.0000 H       1  UNL1        0.0661
     35 H           4.9272   -1.3654    0.0000 H       1  UNL1        0.0573
     36 H           2.3100    0.8615    0.0000 H       1  UNL1        0.0232
     37 H           2.2460   -1.1754    0.0000 H       1  UNL1        0.0232
     38 H           2.8660   -1.7954    0.0000 H       1  UNL1        0.0232
     39 H           3.4860   -1.1754    0.0000 H       1  UNL1        0.0232
     40 H           1.4631    0.6346    0.0000 H       1  UNL1        0.0232
     41 H           1.6900   -0.2123    0.0000 H       1  UNL1        0.0232
     42 H          11.2639   -0.0083    0.0000 H       1  UNL1        0.0655
     43 H          11.2639    1.6575    0.0000 H       1  UNL1        0.0655
     44 H           6.0201   -3.7123    0.0000 H       1  UNL1        0.0274
     45 H           6.8671   -3.4854    0.0000 H       1  UNL1        0.0274
     46 H           6.6401   -2.6385    0.0000 H       1  UNL1        0.0274
     47 H           4.2881   -2.6385    0.0000 H       1  UNL1        0.0274
     48 H           4.0611   -3.4854    0.0000 H       1  UNL1        0.0274
     49 H           4.9081   -3.7123    0.0000 H       1  UNL1        0.0274
     50 H          10.3439   -1.5262    0.0000 H       1  UNL1        0.2922
     51 H          10.3439    3.1754    0.0000 H       1  UNL1        0.2922
@<TRIPOS>BOND
     1     1     7    1
     2     1    16    1
     3     2    12    2
     4     3    16    2
     5     4    17    2
     6     5    21    1
     7     5    50    1
     8     6    22    1
     9     6    51    1
    10     7     8    1
    11     7     9    1
    12     7    28    1
    13     8    12    1
    14     8    15    2
    15     9    18    1
    16     9    29    1
    17     9    30    1
    18    10    11    1
    19    10    19    1
    20    10    20    1
    21    10    31    1
    22    11    16    1
    23    11    32    1
    24    11    33    1
    25    12    13    1
    26    13    14   ar
    27    13    21   ar
    28    14    17    1
    29    14    22   ar
    30    15    17    1
    31    15    34    1
    32    18    23    2
    33    18    35    1
    34    19    36    1
    35    19    40    1
    36    19    41    1
    37    20    37    1
    38    20    38    1
    39    20    39    1
    40    21    24   ar
    41    22    25   ar
    42    23    26    1
    43    23    27    1
    44    24    25   ar
    45    24    42    1
    46    25    43    1
    47    26    47    1
    48    26    48    1
    49    26    49    1
    50    27    44    1
    51    27    45    1
    52    27    46    1
