@<TRIPOS>MOLECULE
IMPHY006551
 22 23 0 0 0
SMALL
GASTEIGER

@<TRIPOS>ATOM
      1 O           5.4920   -0.8447    0.0000 O.2     1  UNL1       -0.4220
      2 O           2.0000   -0.8100    0.0000 O.3     1  UNL1       -0.4913
      3 O           2.0000    1.1900    0.0000 O.3     1  UNL1       -0.5033
      4 O           7.2622   -0.8342    0.0000 O.2     1  UNL1       -0.2452
      5 C           4.5981    0.6900    0.0000 C.ar    1  UNL1        0.0213
      6 C           4.5981   -0.3100    0.0000 C.ar    1  UNL1        0.1428
      7 C           3.7320    1.1900    0.0000 C.ar    1  UNL1       -0.0059
      8 C           2.8660   -0.3100    0.0000 C.ar    1  UNL1        0.1648
      9 C           3.7320   -0.8100    0.0000 C.ar    1  UNL1        0.0267
     10 C           2.8660    0.6900    0.0000 C.ar    1  UNL1        0.1592
     11 C           5.4920    1.2247    0.0000 C.ar    1  UNL1       -0.0442
     12 C           6.3981    0.7108    0.0000 C.ar    1  UNL1        0.0236
     13 C           6.3981   -0.3308    0.0000 C.ar    1  UNL1        0.3372
     14 C           2.0000   -1.8100    0.0000 C.3     1  UNL1        0.0790
     15 H           3.7320    1.8100    0.0000 H       1  UNL1        0.0662
     16 H           3.7320   -1.4300    0.0000 H       1  UNL1        0.0692
     17 H           5.4848    1.8446    0.0000 H       1  UNL1        0.0627
     18 H           6.9338    1.0229    0.0000 H       1  UNL1        0.0689
     19 H           2.0000    1.8100    0.0000 H       1  UNL1        0.2923
     20 H           1.3800   -1.8100    0.0000 H       1  UNL1        0.0660
     21 H           2.0000   -2.4300    0.0000 H       1  UNL1        0.0660
     22 H           2.6200   -1.8100    0.0000 H       1  UNL1        0.0660
@<TRIPOS>BOND
     1     1     6   ar
     2     1    13   ar
     3     2     8    1
     4     2    14    1
     5     3    10    1
     6     3    19    1
     7     4    13    2
     8     5     6   ar
     9     5     7   ar
    10     5    11   ar
    11     6     9   ar
    12     7    10   ar
    13     7    15    1
    14     8     9   ar
    15     8    10   ar
    16     9    16    1
    17    11    12   ar
    18    11    17    1
    19    12    13   ar
    20    12    18    1
    21    14    20    1
    22    14    21    1
    23    14    22    1
