@<TRIPOS>MOLECULE
IMPHY010046
 64 67 0 0 0
SMALL
GASTEIGER

@<TRIPOS>ATOM
      1 O           6.3981   -3.5209    0.0000 O.3     1  UNL1       -0.4858
      2 O           5.5320    0.9791    0.0000 O.3     1  UNL1       -0.4812
      3 O           2.8680   -1.4967    0.0000 O.3     1  UNL1       -0.4914
      4 O           2.8680   -3.5450    0.0000 O.3     1  UNL1       -0.4913
      5 O           9.0501    3.0242    0.0000 O.3     1  UNL1       -0.4914
      6 O           7.2762    4.0484    0.0000 O.3     1  UNL1       -0.4913
      7 C           6.3981   -1.5209    0.0000 C.3     1  UNL1        0.0164
      8 C           7.2641   -2.0209    0.0000 C.3     1  UNL1       -0.0027
      9 C           7.2641   -3.0209    0.0000 C.3     1  UNL1        0.1060
     10 C           6.3981   -0.5209    0.0000 C.2     1  UNL1       -0.0189
     11 C           5.5320   -0.0209    0.0000 C.3     1  UNL1        0.1269
     12 C           5.5320   -2.0209    0.0000 C.ar    1  UNL1        0.0053
     13 C           5.5320   -3.0209    0.0000 C.ar    1  UNL1        0.1287
     14 C           7.7641   -3.8869    0.0000 C.3     1  UNL1       -0.0252
     15 C           8.2641   -3.0209    0.0000 C.3     1  UNL1       -0.0252
     16 C           7.2641   -0.0209    0.0000 C.2     1  UNL1       -0.0474
     17 C           4.5320   -0.0209    0.0000 C.3     1  UNL1       -0.0212
     18 C           5.0320   -0.8869    0.0000 C.3     1  UNL1       -0.0212
     19 C           4.6381   -1.4862    0.0000 C.ar    1  UNL1       -0.0091
     20 C           7.2641    0.9791    0.0000 C.ar    1  UNL1        0.0205
     21 C           6.3981    1.4791    0.0000 C.ar    1  UNL1        0.1326
     22 C           4.6381   -3.5556    0.0000 C.ar    1  UNL1        0.0257
     23 C           3.7320   -2.0001    0.0000 C.ar    1  UNL1        0.1620
     24 C           3.7320   -3.0417    0.0000 C.ar    1  UNL1        0.1650
     25 C           8.1741    1.4860    0.0000 C.ar    1  UNL1       -0.0057
     26 C           6.3820    2.5206    0.0000 C.ar    1  UNL1        0.0260
     27 C           8.1821    2.5276    0.0000 C.ar    1  UNL1        0.1623
     28 C           7.2800    3.0484    0.0000 C.ar    1  UNL1        0.1650
     29 C           2.0000   -1.9934    0.0000 C.3     1  UNL1        0.0790
     30 C           2.8718   -4.5450    0.0000 C.3     1  UNL1        0.0790
     31 C           9.9142    2.5209    0.0000 C.3     1  UNL1        0.0790
     32 C           6.4082    4.5450    0.0000 C.3     1  UNL1        0.0790
     33 H           6.9350   -1.2109    0.0000 H       1  UNL1        0.0398
     34 H           7.8747   -2.1286    0.0000 H       1  UNL1        0.0312
     35 H           7.4762   -1.4383    0.0000 H       1  UNL1        0.0312
     36 H           8.2641   -3.6409    0.0000 H       1  UNL1        0.0268
     37 H           8.8841   -3.0209    0.0000 H       1  UNL1        0.0268
     38 H           8.2641   -2.4009    0.0000 H       1  UNL1        0.0268
     39 H           7.2272   -4.1969    0.0000 H       1  UNL1        0.0268
     40 H           8.0741   -4.4238    0.0000 H       1  UNL1        0.0268
     41 H           8.3010   -3.5769    0.0000 H       1  UNL1        0.0268
     42 H           7.8010   -0.3309    0.0000 H       1  UNL1        0.0626
     43 H           4.4951   -0.5769    0.0000 H       1  UNL1        0.0271
     44 H           4.7220   -1.4238    0.0000 H       1  UNL1        0.0271
     45 H           5.5690   -1.1969    0.0000 H       1  UNL1        0.0271
     46 H           4.5320    0.5991    0.0000 H       1  UNL1        0.0271
     47 H           3.9120   -0.0209    0.0000 H       1  UNL1        0.0271
     48 H           4.5320   -0.6409    0.0000 H       1  UNL1        0.0271
     49 H           4.6453   -0.8663    0.0000 H       1  UNL1        0.0659
     50 H           4.6453   -4.1755    0.0000 H       1  UNL1        0.0692
     51 H           8.7074    1.1698    0.0000 H       1  UNL1        0.0662
     52 H           5.8415    2.8244    0.0000 H       1  UNL1        0.0692
     53 H           1.6921   -1.4553    0.0000 H       1  UNL1        0.0660
     54 H           1.4619   -2.3013    0.0000 H       1  UNL1        0.0660
     55 H           2.3079   -2.5315    0.0000 H       1  UNL1        0.0660
     56 H           2.2518   -4.5474    0.0000 H       1  UNL1        0.0660
     57 H           2.8742   -5.1650    0.0000 H       1  UNL1        0.0660
     58 H           3.4918   -4.5426    0.0000 H       1  UNL1        0.0660
     59 H           9.6021    1.9852    0.0000 H       1  UNL1        0.0660
     60 H          10.4499    2.2088    0.0000 H       1  UNL1        0.0660
     61 H          10.2262    3.0566    0.0000 H       1  UNL1        0.0660
     62 H           6.7162    5.0832    0.0000 H       1  UNL1        0.0660
     63 H           5.8701    4.8530    0.0000 H       1  UNL1        0.0660
     64 H           6.1003    4.0069    0.0000 H       1  UNL1        0.0660
@<TRIPOS>BOND
     1     1     9    1
     2     1    13    1
     3     2    11    1
     4     2    21    1
     5     3    23    1
     6     3    29    1
     7     4    24    1
     8     4    30    1
     9     5    27    1
    10     5    31    1
    11     6    28    1
    12     6    32    1
    13     7     8    1
    14     7    10    1
    15     7    12    1
    16     7    33    1
    17     8     9    1
    18     8    34    1
    19     8    35    1
    20     9    14    1
    21     9    15    1
    22    10    11    1
    23    10    16    2
    24    11    17    1
    25    11    18    1
    26    12    13   ar
    27    12    19   ar
    28    13    22   ar
    29    14    39    1
    30    14    40    1
    31    14    41    1
    32    15    36    1
    33    15    37    1
    34    15    38    1
    35    16    20    1
    36    16    42    1
    37    17    46    1
    38    17    47    1
    39    17    48    1
    40    18    43    1
    41    18    44    1
    42    18    45    1
    43    19    23   ar
    44    19    49    1
    45    20    21   ar
    46    20    25   ar
    47    21    26   ar
    48    22    24   ar
    49    22    50    1
    50    23    24   ar
    51    25    27   ar
    52    25    51    1
    53    26    28   ar
    54    26    52    1
    55    27    28   ar
    56    29    53    1
    57    29    54    1
    58    29    55    1
    59    30    56    1
    60    30    57    1
    61    30    58    1
    62    31    59    1
    63    31    60    1
    64    31    61    1
    65    32    62    1
    66    32    63    1
    67    32    64    1
