@<TRIPOS>MOLECULE
IMPHY008388
 33 34 0 0 0
SMALL
GASTEIGER

@<TRIPOS>ATOM
      1 O           6.3580    0.4480    0.0000 O.2     1  UNL1       -0.4217
      2 O           2.8660    0.4827    0.0000 O.3     1  UNL1       -0.4947
      3 O           2.8660   -0.5173    0.0000 O.2     1  UNL1       -0.2921
      4 O           8.1282    0.4585    0.0000 O.2     1  UNL1       -0.2452
      5 C           4.5981    0.4827    0.0000 C.ar    1  UNL1        0.0445
      6 C           5.4641    0.9827    0.0000 C.ar    1  UNL1        0.1461
      7 C           4.5981   -0.5173    0.0000 C.3     1  UNL1        0.0423
      8 C           5.4641    1.9827    0.0000 C.ar    1  UNL1        0.0181
      9 C           3.7320    0.9827    0.0000 C.ar    1  UNL1        0.1272
     10 C           4.5981    2.4827    0.0000 C.ar    1  UNL1       -0.0476
     11 C           3.7320    1.9827    0.0000 C.ar    1  UNL1       -0.0189
     12 C           3.7320   -1.0173    0.0000 C.2     1  UNL1        0.1629
     13 C           6.3580    2.5173    0.0000 C.ar    1  UNL1       -0.0443
     14 C           7.2641    2.0035    0.0000 C.ar    1  UNL1        0.0236
     15 C           3.7320   -2.0173    0.0000 C.2     1  UNL1       -0.0148
     16 C           7.2641    0.9619    0.0000 C.ar    1  UNL1        0.3372
     17 C           2.8660   -2.5173    0.0000 C.3     1  UNL1       -0.0370
     18 C           2.0000    0.9827    0.0000 C.3     1  UNL1        0.0788
     19 C           4.5981   -2.5173    0.0000 C.2     1  UNL1       -0.0925
     20 H           4.8101   -1.0999    0.0000 H       1  UNL1        0.0396
     21 H           5.2087   -0.4097    0.0000 H       1  UNL1        0.0396
     22 H           4.5981    3.1027    0.0000 H       1  UNL1        0.0626
     23 H           3.1951    2.2927    0.0000 H       1  UNL1        0.0654
     24 H           6.3509    3.1373    0.0000 H       1  UNL1        0.0627
     25 H           7.7998    2.3156    0.0000 H       1  UNL1        0.0689
     26 H           2.5560   -1.9804    0.0000 H       1  UNL1        0.0278
     27 H           2.3291   -2.8273    0.0000 H       1  UNL1        0.0278
     28 H           3.1760   -3.0543    0.0000 H       1  UNL1        0.0278
     29 H           2.3100    1.5196    0.0000 H       1  UNL1        0.0660
     30 H           1.4631    1.2927    0.0000 H       1  UNL1        0.0660
     31 H           1.6900    0.4457    0.0000 H       1  UNL1        0.0660
     32 H           4.5981   -3.1373    0.0000 H       1  UNL1        0.0538
     33 H           5.1350   -2.2073    0.0000 H       1  UNL1        0.0538
@<TRIPOS>BOND
     1     1     6   ar
     2     1    16   ar
     3     2     9    1
     4     2    18    1
     5     3    12    2
     6     4    16    2
     7     5     6   ar
     8     5     7    1
     9     5     9   ar
    10     6     8   ar
    11     7    12    1
    12     7    20    1
    13     7    21    1
    14     8    10   ar
    15     8    13   ar
    16     9    11   ar
    17    10    11   ar
    18    10    22    1
    19    11    23    1
    20    12    15    1
    21    13    14   ar
    22    13    24    1
    23    14    16   ar
    24    14    25    1
    25    15    17    1
    26    15    19    2
    27    17    26    1
    28    17    27    1
    29    17    28    1
    30    18    29    1
    31    18    30    1
    32    18    31    1
    33    19    32    1
    34    19    33    1
