@<TRIPOS>MOLECULE
IMPHY010461
 49 48 0 0 0
SMALL
GASTEIGER

@<TRIPOS>ATOM
      1 S          11.0851    5.7150    0.0000 S.3     1  UNL1       -0.6733
      2 O           2.4860    4.1200    0.0000 O.3     1  UNL1       -0.4562
      3 O           4.2181    4.1200    0.0000 O.2     1  UNL1       -0.2456
      4 O           2.4860    9.1200    0.0000 O.3     1  UNL1       -0.4913
      5 O           5.9501    9.1200    0.0000 O.3     1  UNL1       -0.4913
      6 O           4.2181   10.1200    0.0000 O.3     1  UNL1       -0.5009
      7 N           1.6200    1.6200    0.0000 N.4     1  UNL1        0.2393
      8 N           9.3531    4.7150    0.0000 N.1     1  UNL1       -0.2257
      9 C           1.6200    2.6200    0.0000 C.3     1  UNL1        0.0042
     10 C           1.6200    0.6200    0.0000 C.3     1  UNL1       -0.0417
     11 C           0.6200    1.6200    0.0000 C.3     1  UNL1       -0.0417
     12 C           2.6200    1.6200    0.0000 C.3     1  UNL1       -0.0417
     13 C           2.4860    3.1200    0.0000 C.3     1  UNL1        0.1324
     14 C           3.3520    4.6200    0.0000 C.2     1  UNL1        0.3321
     15 C           3.3520    5.6200    0.0000 C.2     1  UNL1        0.0231
     16 C           4.2181    7.1200    0.0000 C.ar    1  UNL1       -0.0177
     17 C           4.2181    6.1200    0.0000 C.2     1  UNL1       -0.0476
     18 C           5.0841    7.6200    0.0000 C.ar    1  UNL1       -0.0089
     19 C           3.3520    7.6200    0.0000 C.ar    1  UNL1       -0.0089
     20 C           3.3520    8.6200    0.0000 C.ar    1  UNL1        0.1655
     21 C           5.0841    8.6200    0.0000 C.ar    1  UNL1        0.1655
     22 C           4.2181    9.1200    0.0000 C.ar    1  UNL1        0.2010
     23 C           1.6200    8.6200    0.0000 C.3     1  UNL1        0.0790
     24 C           6.8162    8.6200    0.0000 C.3     1  UNL1        0.0790
     25 C          10.2191    5.2150    0.0000 C.1     1  UNL1       -0.1010
     26 H           1.4080    3.2026    0.0000 H       1  UNL1        0.0849
     27 H           1.0094    2.5123    0.0000 H       1  UNL1        0.0849
     28 H           2.6200    1.0000    0.0000 H       1  UNL1        0.0778
     29 H           1.0000    0.6200    0.0000 H       1  UNL1        0.0778
     30 H           1.6200    0.0000    0.0000 H       1  UNL1        0.0778
     31 H           2.2400    0.6200    0.0000 H       1  UNL1        0.0778
     32 H           0.6200    2.2400    0.0000 H       1  UNL1        0.0778
     33 H           0.0000    1.6200    0.0000 H       1  UNL1        0.0778
     34 H           0.6200    1.0000    0.0000 H       1  UNL1        0.0778
     35 H           3.2400    1.6200    0.0000 H       1  UNL1        0.0778
     36 H           2.6200    2.2400    0.0000 H       1  UNL1        0.0778
     37 H           2.6981    2.5374    0.0000 H       1  UNL1        0.0752
     38 H           3.0966    3.2277    0.0000 H       1  UNL1        0.0752
     39 H           2.8151    5.9300    0.0000 H       1  UNL1        0.0689
     40 H           4.7550    5.8100    0.0000 H       1  UNL1        0.0626
     41 H           5.6210    7.3100    0.0000 H       1  UNL1        0.0661
     42 H           2.8151    7.3100    0.0000 H       1  UNL1        0.0661
     43 H           4.7550   10.4300    0.0000 H       1  UNL1        0.2924
     44 H           1.3100    9.1569    0.0000 H       1  UNL1        0.0660
     45 H           1.0831    8.3100    0.0000 H       1  UNL1        0.0660
     46 H           1.9300    8.0831    0.0000 H       1  UNL1        0.0660
     47 H           6.5062    8.0831    0.0000 H       1  UNL1        0.0660
     48 H           7.3531    8.3100    0.0000 H       1  UNL1        0.0660
     49 H           7.1262    9.1569    0.0000 H       1  UNL1        0.0660
@<TRIPOS>UNITY_ATOM_ATTR
1 1
charge -1
7 1
charge 1
@<TRIPOS>BOND
     1     1    25    1
     2     2    13    1
     3     2    14    1
     4     3    14    2
     5     4    20    1
     6     4    23    1
     7     5    21    1
     8     5    24    1
     9     6    22    1
    10     6    43    1
    11     7     9    1
    12     7    10    1
    13     7    11    1
    14     7    12    1
    15     8    25    3
    16     9    13    1
    17     9    26    1
    18     9    27    1
    19    10    29    1
    20    10    30    1
    21    10    31    1
    22    11    32    1
    23    11    33    1
    24    11    34    1
    25    12    28    1
    26    12    35    1
    27    12    36    1
    28    13    37    1
    29    13    38    1
    30    14    15    1
    31    15    17    2
    32    15    39    1
    33    16    17    1
    34    16    18   ar
    35    16    19   ar
    36    17    40    1
    37    18    21   ar
    38    18    41    1
    39    19    20   ar
    40    19    42    1
    41    20    22   ar
    42    21    22   ar
    43    23    44    1
    44    23    45    1
    45    23    46    1
    46    24    47    1
    47    24    48    1
    48    24    49    1
