@<TRIPOS>MOLECULE
IMPHY000084
 24 23 0 0 0
SMALL
GASTEIGER

@<TRIPOS>ATOM
      1 O           2.5369    0.7500    0.0000 O.3     1  UNL1       -0.3921
      2 C           5.1350    0.2500    0.0000 C.3     1  UNL1       -0.0507
      3 C           4.2690    0.7500    0.0000 C.3     1  UNL1       -0.0271
      4 C           6.0010    0.7500    0.0000 C.3     1  UNL1       -0.0532
      5 C           3.4030    0.2500    0.0000 C.3     1  UNL1        0.0524
      6 C           6.8671    0.2500    0.0000 C.3     1  UNL1       -0.0559
      7 C           3.4030   -0.7500    0.0000 C.3     1  UNL1       -0.0389
      8 C           7.7331    0.7500    0.0000 C.3     1  UNL1       -0.0653
      9 H           4.7365   -0.2249    0.0000 H       1  UNL1        0.0266
     10 H           5.5335   -0.2249    0.0000 H       1  UNL1        0.0266
     11 H           4.6675    1.2250    0.0000 H       1  UNL1        0.0290
     12 H           3.8705    1.2250    0.0000 H       1  UNL1        0.0290
     13 H           6.3996    1.2250    0.0000 H       1  UNL1        0.0265
     14 H           5.6025    1.2250    0.0000 H       1  UNL1        0.0265
     15 H           3.4030    1.1000    0.0000 H       1  UNL1        0.0590
     16 H           6.4685   -0.2249    0.0000 H       1  UNL1        0.0263
     17 H           7.2656   -0.2249    0.0000 H       1  UNL1        0.0263
     18 H           2.7830   -0.7500    0.0000 H       1  UNL1        0.0254
     19 H           3.4030   -1.3700    0.0000 H       1  UNL1        0.0254
     20 H           4.0230   -0.7500    0.0000 H       1  UNL1        0.0254
     21 H           8.0431    0.2131    0.0000 H       1  UNL1        0.0230
     22 H           8.2700    1.0600    0.0000 H       1  UNL1        0.0230
     23 H           7.4231    1.2869    0.0000 H       1  UNL1        0.0230
     24 H           2.0000    0.4400    0.0000 H       1  UNL1        0.2098
@<TRIPOS>BOND
     1     1     5    1
     2     1    24    1
     3     2     3    1
     4     2     4    1
     5     2     9    1
     6     2    10    1
     7     3     5    1
     8     3    11    1
     9     3    12    1
    10     4     6    1
    11     4    13    1
    12     4    14    1
    13     5     7    1
    14     5    15    1
    15     6     8    1
    16     6    16    1
    17     6    17    1
    18     7    18    1
    19     7    19    1
    20     7    20    1
    21     8    21    1
    22     8    22    1
    23     8    23    1
