@<TRIPOS>MOLECULE
IMPHY009613
 62 63 0 0 0
SMALL
GASTEIGER

@<TRIPOS>ATOM
      1 O           5.4646   -0.5000    0.0000 O.3     1  UNL1       -0.3565
      2 O           2.0000   -1.5000    0.0000 O.3     1  UNL1       -0.3917
      3 O          15.0981   -0.8660    0.0000 O.2     1  UNL1       -0.2960
      4 C           4.5981    0.0000    0.0000 C.3     1  UNL1        0.1224
      5 C           4.5981   -1.0000    0.0000 C.3     1  UNL1        0.1032
      6 C           3.7320    0.5000    0.0000 C.3     1  UNL1        0.0029
      7 C           3.7320   -1.5000    0.0000 C.3     1  UNL1        0.0052
      8 C           2.8660    0.0000    0.0000 C.3     1  UNL1       -0.0186
      9 C           2.8660   -1.0000    0.0000 C.3     1  UNL1        0.0585
     10 C           4.5981   -2.0000    0.0000 C.3     1  UNL1       -0.0326
     11 C           5.0981    0.8660    0.0000 C.2     1  UNL1       -0.0491
     12 C           2.8660    1.0000    0.0000 C.3     1  UNL1       -0.0567
     13 C           3.7320    1.5000    0.0000 C.3     1  UNL1       -0.0567
     14 C           6.0981    0.8660    0.0000 C.2     1  UNL1       -0.0600
     15 C           6.5981    1.7320    0.0000 C.2     1  UNL1       -0.0507
     16 C           6.0981    2.5981    0.0000 C.3     1  UNL1       -0.0397
     17 C           7.5981    1.7320    0.0000 C.2     1  UNL1       -0.0588
     18 C           8.0981    0.8660    0.0000 C.2     1  UNL1       -0.0613
     19 C           9.0981    0.8660    0.0000 C.2     1  UNL1       -0.0588
     20 C           9.5981    0.0000    0.0000 C.2     1  UNL1       -0.0504
     21 C           9.0981   -0.8660    0.0000 C.3     1  UNL1       -0.0397
     22 C          10.5981   -0.0000    0.0000 C.2     1  UNL1       -0.0588
     23 C          11.0981   -0.8660    0.0000 C.2     1  UNL1       -0.0615
     24 C          12.0981   -0.8660    0.0000 C.2     1  UNL1       -0.0614
     25 C          12.5981   -1.7320    0.0000 C.2     1  UNL1       -0.0558
     26 C          13.5981   -1.7320    0.0000 C.2     1  UNL1       -0.0113
     27 C          14.0981   -2.5981    0.0000 C.3     1  UNL1       -0.0367
     28 C          14.0981   -0.8660    0.0000 C.2     1  UNL1        0.1460
     29 H           3.3335   -1.9750    0.0000 H       1  UNL1        0.0319
     30 H           4.1306   -1.9750    0.0000 H       1  UNL1        0.0319
     31 H           2.6540    0.5826    0.0000 H       1  UNL1        0.0296
     32 H           2.2554   -0.1077    0.0000 H       1  UNL1        0.0296
     33 H           2.8660   -1.6200    0.0000 H       1  UNL1        0.0594
     34 H           3.9781   -2.0000    0.0000 H       1  UNL1        0.0258
     35 H           4.5981   -2.6200    0.0000 H       1  UNL1        0.0258
     36 H           5.2181   -2.0000    0.0000 H       1  UNL1        0.0258
     37 H           4.7881    1.4030    0.0000 H       1  UNL1        0.0602
     38 H           3.1760    1.5369    0.0000 H       1  UNL1        0.0236
     39 H           4.3520    1.5000    0.0000 H       1  UNL1        0.0236
     40 H           3.7320    2.1200    0.0000 H       1  UNL1        0.0236
     41 H           3.1120    1.5000    0.0000 H       1  UNL1        0.0236
     42 H           2.3291    1.3100    0.0000 H       1  UNL1        0.0236
     43 H           2.5560    0.4631    0.0000 H       1  UNL1        0.0236
     44 H           2.0000   -2.1200    0.0000 H       1  UNL1        0.2098
     45 H           6.4081    0.3291    0.0000 H       1  UNL1        0.0618
     46 H           6.6350    2.9081    0.0000 H       1  UNL1        0.0278
     47 H           5.7881    3.1350    0.0000 H       1  UNL1        0.0278
     48 H           5.5611    2.2881    0.0000 H       1  UNL1        0.0278
     49 H           7.9081    2.2690    0.0000 H       1  UNL1        0.0620
     50 H           7.7881    0.3291    0.0000 H       1  UNL1        0.0618
     51 H           9.4081    1.4030    0.0000 H       1  UNL1        0.0620
     52 H           8.5611   -0.5560    0.0000 H       1  UNL1        0.0278
     53 H           8.7881   -1.4030    0.0000 H       1  UNL1        0.0278
     54 H           9.6350   -1.1760    0.0000 H       1  UNL1        0.0278
     55 H          10.9081    0.5369    0.0000 H       1  UNL1        0.0620
     56 H          10.7881   -1.4030    0.0000 H       1  UNL1        0.0618
     57 H          12.4081   -0.3291    0.0000 H       1  UNL1        0.0618
     58 H          12.2881   -2.2690    0.0000 H       1  UNL1        0.0621
     59 H          13.5611   -2.9081    0.0000 H       1  UNL1        0.0278
     60 H          14.4081   -3.1350    0.0000 H       1  UNL1        0.0278
     61 H          14.6350   -2.2881    0.0000 H       1  UNL1        0.0278
     62 H          13.7881   -0.3291    0.0000 H       1  UNL1        0.1078
@<TRIPOS>BOND
     1     1     4    1
     2     1     5    1
     3     2     9    1
     4     2    44    1
     5     3    28    2
     6     4     5    1
     7     4     6    1
     8     4    11    1
     9     5     7    1
    10     5    10    1
    11     6     8    1
    12     6    12    1
    13     6    13    1
    14     7     9    1
    15     7    29    1
    16     7    30    1
    17     8     9    1
    18     8    31    1
    19     8    32    1
    20     9    33    1
    21    10    34    1
    22    10    35    1
    23    10    36    1
    24    11    14    2
    25    11    37    1
    26    12    38    1
    27    12    42    1
    28    12    43    1
    29    13    39    1
    30    13    40    1
    31    13    41    1
    32    14    15    1
    33    14    45    1
    34    15    16    1
    35    15    17    2
    36    16    46    1
    37    16    47    1
    38    16    48    1
    39    17    18    1
    40    17    49    1
    41    18    19    2
    42    18    50    1
    43    19    20    1
    44    19    51    1
    45    20    21    1
    46    20    22    2
    47    21    52    1
    48    21    53    1
    49    21    54    1
    50    22    23    1
    51    22    55    1
    52    23    24    2
    53    23    56    1
    54    24    25    1
    55    24    57    1
    56    25    26    2
    57    25    58    1
    58    26    27    1
    59    26    28    1
    60    27    59    1
    61    27    60    1
    62    27    61    1
    63    28    62    1
