@<TRIPOS>MOLECULE
IMPHY016565
 32 32 0 0 0
SMALL
GASTEIGER

@<TRIPOS>ATOM
      1 O           4.5981    1.0000    0.0000 O.3     1  UNL1       -0.4572
      2 O           3.7320    2.5000    0.0000 O.2     1  UNL1       -0.2453
      3 C           2.8660   -2.0000    0.0000 C.ar    1  UNL1       -0.0252
      4 C           3.7320    0.5000    0.0000 C.3     1  UNL1        0.1113
      5 C           2.8660   -1.0000    0.0000 C.2     1  UNL1       -0.0554
      6 C           5.4641    2.5000    0.0000 C.2     1  UNL1        0.0293
      7 C           3.7320   -0.5000    0.0000 C.2     1  UNL1       -0.0465
      8 C           2.0000   -2.5000    0.0000 C.ar    1  UNL1       -0.0546
      9 C           3.7320   -2.5000    0.0000 C.ar    1  UNL1       -0.0546
     10 C           4.5981    2.0000    0.0000 C.2     1  UNL1        0.3349
     11 C           6.3301    2.0000    0.0000 C.3     1  UNL1       -0.0333
     12 C           5.4641    3.5000    0.0000 C.2     1  UNL1       -0.0774
     13 C           2.0000   -3.5000    0.0000 C.ar    1  UNL1       -0.0612
     14 C           3.7320   -3.5000    0.0000 C.ar    1  UNL1       -0.0612
     15 C           2.8660   -4.0000    0.0000 C.ar    1  UNL1       -0.0617
     16 C           6.3301    4.0000    0.0000 C.3     1  UNL1       -0.0461
     17 H           3.5200    1.0826    0.0000 H       1  UNL1        0.0743
     18 H           3.1215    0.3923    0.0000 H       1  UNL1        0.0743
     19 H           2.3291   -0.6900    0.0000 H       1  UNL1        0.0621
     20 H           4.2690   -0.8100    0.0000 H       1  UNL1        0.0606
     21 H           1.4631   -2.1900    0.0000 H       1  UNL1        0.0623
     22 H           4.2690   -2.1900    0.0000 H       1  UNL1        0.0623
     23 H           6.0201    1.4631    0.0000 H       1  UNL1        0.0280
     24 H           6.8671    1.6900    0.0000 H       1  UNL1        0.0280
     25 H           6.6401    2.5369    0.0000 H       1  UNL1        0.0280
     26 H           4.9272    3.8100    0.0000 H       1  UNL1        0.0574
     27 H           1.4631   -3.8100    0.0000 H       1  UNL1        0.0618
     28 H           4.2690   -3.8100    0.0000 H       1  UNL1        0.0618
     29 H           2.8660   -4.6200    0.0000 H       1  UNL1        0.0618
     30 H           6.6401    3.4631    0.0000 H       1  UNL1        0.0272
     31 H           6.8671    4.3100    0.0000 H       1  UNL1        0.0272
     32 H           6.0201    4.5369    0.0000 H       1  UNL1        0.0272
@<TRIPOS>BOND
     1     1     4    1
     2     1    10    1
     3     2    10    2
     4     3     5    1
     5     3     8   ar
     6     3     9   ar
     7     4     7    1
     8     4    17    1
     9     4    18    1
    10     5     7    2
    11     5    19    1
    12     6    10    1
    13     6    11    1
    14     6    12    2
    15     7    20    1
    16     8    13   ar
    17     8    21    1
    18     9    14   ar
    19     9    22    1
    20    11    23    1
    21    11    24    1
    22    11    25    1
    23    12    16    1
    24    12    26    1
    25    13    15   ar
    26    13    27    1
    27    14    15   ar
    28    14    28    1
    29    15    29    1
    30    16    30    1
    31    16    31    1
    32    16    32    1
