@<TRIPOS>MOLECULE
IMPHY010765
 17 20 0 0 0
SMALL
GASTEIGER

@<TRIPOS>ATOM
      1 O           5.0190   -1.5225    0.0000 O.3     1  UNL1       -0.4474
      2 O           5.8169    2.5538    0.0000 O.3     1  UNL1       -0.2214
      3 O           6.4311   -2.6001    0.0000 O.2     1  UNL1       -0.2449
      4 N           3.7595    0.8710    0.0000 N.3     1  UNL1       -0.2696
      5 C           4.8830   -0.5378    0.0000 C.3     1  UNL1        0.1661
      6 C           3.9820   -0.1039    0.0000 C.3     1  UNL1        0.0982
      7 C           4.3830    1.6528    0.0000 C.3     1  UNL1        0.0923
      8 C           4.0006    0.4132    0.0000 C.3     1  UNL1        0.0640
      9 C           5.3830    1.6528    0.0000 C.3     1  UNL1        0.1707
     10 C           5.7840   -0.1039    0.0000 C.2     1  UNL1        0.0018
     11 C           3.2295   -0.8241    0.0000 C.3     1  UNL1        0.0199
     12 C           6.0065    0.8710    0.0000 C.3     1  UNL1        0.0599
     13 C           2.7690    1.1934    0.0000 C.3     1  UNL1        0.0722
     14 C           2.2318   -0.5247    0.0000 C.3     1  UNL1        0.0029
     15 C           2.0000    0.4908    0.0000 C.3     1  UNL1        0.0174
     16 C           6.4691   -0.8242    0.0000 C.2     1  UNL1        0.0768
     17 C           5.9973   -1.6992    0.0000 C.2     1  UNL1        0.3410
@<TRIPOS>BOND
     1     1     5    1
     2     1    17    1
     3     3    17    2
     4     4     6    1
     5     4     7    1
     6     4    13    1
     7     5     6    1
     8     5     8    1
     9     5    10    1
    10     6    11    1
    11     7     8    1
    12     7     9    1
    13     9     2    1
    14     9    12    1
    15    10    12    1
    16    10    16    2
    17    11    14    1
    18    13    15    1
    19    14    15    1
    20    16    17    1
