@<TRIPOS>MOLECULE
IMPHY009441
 125 132 0 0 0
SMALL
GASTEIGER

@<TRIPOS>ATOM
      1 O           5.0004    2.9269    0.0000 O.3     1  UNL1       -0.3877
      2 O          10.3894    4.0000    0.0000 O.3     1  UNL1       -0.3454
      3 O           8.9668    1.3255    0.0000 O.2     1  UNL1       -0.3004
      4 O           3.7595   -1.9512    0.0000 O.3     1  UNL1       -0.4571
      5 O          11.2554    2.5000    0.0000 O.3     1  UNL1       -0.3431
      6 O           2.0000   -2.2337    0.0000 O.2     1  UNL1       -0.2456
      7 O          12.1214    5.0000    0.0000 O.3     1  UNL1       -0.3841
      8 O          13.8535    4.0000    0.0000 O.3     1  UNL1       -0.3744
      9 O          13.8535    2.0000    0.0000 O.3     1  UNL1       -0.3402
     10 O          12.9874    0.5000    0.0000 O.3     1  UNL1       -0.3405
     11 O          15.5855    1.0000    0.0000 O.3     1  UNL1       -0.3841
     12 O          15.5855   -1.0000    0.0000 O.3     1  UNL1       -0.3864
     13 O          13.8535   -2.0000    0.0000 O.3     1  UNL1       -0.3865
     14 O          12.1214   -2.0000    0.0000 O.3     1  UNL1       -0.3460
     15 O          10.3894   -2.0000    0.0000 O.3     1  UNL1       -0.3405
     16 O          12.1214   -4.0000    0.0000 O.3     1  UNL1       -0.3841
     17 O          10.3894   -5.0000    0.0000 O.3     1  UNL1       -0.3864
     18 O           8.6573   -4.0000    0.0000 O.3     1  UNL1       -0.3865
     19 O           8.6573   -1.0000    0.0000 O.3     1  UNL1       -0.3924
     20 C           5.0042    1.9269    0.0000 C.3     1  UNL1        0.0751
     21 C           5.8683    2.4302    0.0000 C.3     1  UNL1       -0.0079
     22 C           5.0081    0.9269    0.0000 C.3     1  UNL1        0.0036
     23 C           6.7363    1.9336    0.0000 C.3     1  UNL1       -0.0232
     24 C           7.6443    2.4439    0.0000 C.3     1  UNL1        0.0321
     25 C           4.0630    0.6185    0.0000 C.3     1  UNL1       -0.0081
     26 C           5.8760    0.4302    0.0000 C.3     1  UNL1       -0.0442
     27 C           6.7401    0.9336    0.0000 C.3     1  UNL1       -0.0484
     28 C           7.6483    3.4856    0.0000 C.3     1  UNL1       -0.0263
     29 C           4.0568    2.2280    0.0000 C.3     1  UNL1       -0.0226
     30 C           5.8482    3.4717    0.0000 C.3     1  UNL1       -0.0470
     31 C           3.4763    1.4210    0.0000 C.3     1  UNL1       -0.0432
     32 C           6.7442    4.0029    0.0000 C.3     1  UNL1       -0.0489
     33 C           8.5733    1.8834    0.0000 C.3     1  UNL1       -0.0381
     34 C           5.0119   -0.0731    0.0000 C.3     1  UNL1       -0.0564
     35 C           8.5816    4.0389    0.0000 C.3     1  UNL1       -0.0228
     36 C           9.5192    2.4150    0.0000 C.3     1  UNL1       -0.0256
     37 C           9.5233    3.5000    0.0000 C.3     1  UNL1        0.0621
     38 C           3.7560   -0.3332    0.0000 C.2     1  UNL1       -0.0222
     39 C           7.9828    1.5030    0.0000 C.2     1  UNL1        0.1270
     40 C           4.3455   -1.1409    0.0000 C.3     1  UNL1        0.1147
     41 C           2.8056   -0.6442    0.0000 C.2     1  UNL1        0.0252
     42 C           2.8078   -1.6442    0.0000 C.2     1  UNL1        0.3323
     43 C          11.2554    3.5000    0.0000 C.3     1  UNL1        0.1881
     44 C          12.1214    4.0000    0.0000 C.3     1  UNL1        0.1344
     45 C          12.9874    3.5000    0.0000 C.3     1  UNL1        0.1174
     46 C          12.1214    2.0000    0.0000 C.3     1  UNL1        0.0877
     47 C          12.9874    2.5000    0.0000 C.3     1  UNL1        0.1162
     48 C          12.1214    1.0000    0.0000 C.3     1  UNL1       -0.0360
     49 C          13.8535    1.0000    0.0000 C.3     1  UNL1        0.1884
     50 C          13.8535    5.0000    0.0000 C.3     1  UNL1        0.0370
     51 C          14.7195    0.5000    0.0000 C.3     1  UNL1        0.1341
     52 C          14.7195   -0.5000    0.0000 C.3     1  UNL1        0.1141
     53 C          12.9874   -0.5000    0.0000 C.3     1  UNL1        0.1134
     54 C          13.8535   -1.0000    0.0000 C.3     1  UNL1        0.1119
     55 C          12.1214   -1.0000    0.0000 C.3     1  UNL1        0.0796
     56 C          11.2554   -2.5000    0.0000 C.3     1  UNL1        0.1880
     57 C          11.2554   -3.5000    0.0000 C.3     1  UNL1        0.1341
     58 C          10.3894   -4.0000    0.0000 C.3     1  UNL1        0.1141
     59 C           9.5233   -3.5000    0.0000 C.3     1  UNL1        0.1119
     60 C           9.5233   -2.5000    0.0000 C.3     1  UNL1        0.1130
     61 C           8.6573   -2.0000    0.0000 C.3     1  UNL1        0.0730
     62 H           6.5995    2.8637    0.0000 H       1  UNL1        0.0332
     63 H           7.4707    1.5057    0.0000 H       1  UNL1        0.0314
     64 H           3.4509    0.5200    0.0000 H       1  UNL1        0.0353
     65 H           5.4793   -0.0462    0.0000 H       1  UNL1        0.0272
     66 H           6.2764   -0.0432    0.0000 H       1  UNL1        0.0272
     67 H           6.9544    0.3518    0.0000 H       1  UNL1        0.0268
     68 H           7.3503    1.0436    0.0000 H       1  UNL1        0.0268
     69 H           7.6418    4.3355    0.0000 H       1  UNL1        0.0311
     70 H           4.3057    2.7958    0.0000 H       1  UNL1        0.0293
     71 H           3.5183    2.5351    0.0000 H       1  UNL1        0.0293
     72 H           5.6280    4.0512    0.0000 H       1  UNL1        0.0269
     73 H           5.2395    3.3538    0.0000 H       1  UNL1        0.0269
     74 H           3.0139    1.8340    0.0000 H       1  UNL1        0.0272
     75 H           3.0171    1.0045    0.0000 H       1  UNL1        0.0272
     76 H           7.1397    4.4804    0.0000 H       1  UNL1        0.0268
     77 H           6.3414    4.4742    0.0000 H       1  UNL1        0.0268
     78 H           8.1669    1.4152    0.0000 H       1  UNL1        0.0276
     79 H           8.9651    1.4029    0.0000 H       1  UNL1        0.0276
     80 H           4.3919   -0.0755    0.0000 H       1  UNL1        0.0236
     81 H           5.0143   -0.6931    0.0000 H       1  UNL1        0.0236
     82 H           5.6319   -0.0707    0.0000 H       1  UNL1        0.0236
     83 H           8.9771    4.5164    0.0000 H       1  UNL1        0.0293
     84 H           8.1788    4.5102    0.0000 H       1  UNL1        0.0293
     85 H           9.7259    1.8305    0.0000 H       1  UNL1        0.0290
     86 H          10.1304    2.5188    0.0000 H       1  UNL1        0.0290
     87 H          10.0597    3.1890    0.0000 H       1  UNL1        0.0597
     88 H           4.4622    3.2348    0.0000 H       1  UNL1        0.2102
     89 H           7.5824    1.0295    0.0000 H       1  UNL1        0.1032
     90 H           4.8072   -1.5548    0.0000 H       1  UNL1        0.0746
     91 H           4.8054   -0.7251    0.0000 H       1  UNL1        0.0746
     92 H           2.3033   -0.2809    0.0000 H       1  UNL1        0.0689
     93 H          11.2554    4.1200    0.0000 H       1  UNL1        0.0937
     94 H          12.6583    4.3100    0.0000 H       1  UNL1        0.0671
     95 H          12.9874    4.1200    0.0000 H       1  UNL1        0.0650
     96 H          11.5845    1.6900    0.0000 H       1  UNL1        0.0621
     97 H          13.5244    2.8100    0.0000 H       1  UNL1        0.0650
     98 H          11.5845    5.3100    0.0000 H       1  UNL1        0.2101
     99 H          11.5014    1.0000    0.0000 H       1  UNL1        0.0255
    100 H          12.1214    0.3800    0.0000 H       1  UNL1        0.0255
    101 H          12.7414    1.0000    0.0000 H       1  UNL1        0.0255
    102 H          13.3165    1.3100    0.0000 H       1  UNL1        0.0938
    103 H          14.4735    5.0000    0.0000 H       1  UNL1        0.0524
    104 H          13.8535    5.6200    0.0000 H       1  UNL1        0.0524
    105 H          13.2335    5.0000    0.0000 H       1  UNL1        0.0524
    106 H          14.7195    1.1200    0.0000 H       1  UNL1        0.0671
    107 H          15.2564   -0.1900    0.0000 H       1  UNL1        0.0648
    108 H          12.4505   -0.1900    0.0000 H       1  UNL1        0.0647
    109 H          14.3904   -1.3100    0.0000 H       1  UNL1        0.0647
    110 H          15.5855    1.6200    0.0000 H       1  UNL1        0.2101
    111 H          11.9094   -0.4174    0.0000 H       1  UNL1        0.0587
    112 H          11.5108   -1.1077    0.0000 H       1  UNL1        0.0587
    113 H          16.1224   -0.6900    0.0000 H       1  UNL1        0.2100
    114 H          14.3904   -2.3100    0.0000 H       1  UNL1        0.2100
    115 H          11.7923   -2.8100    0.0000 H       1  UNL1        0.0937
    116 H          11.2554   -4.1200    0.0000 H       1  UNL1        0.0671
    117 H          10.9263   -4.3100    0.0000 H       1  UNL1        0.0648
    118 H           9.5233   -4.1200    0.0000 H       1  UNL1        0.0647
    119 H           9.5233   -1.8800    0.0000 H       1  UNL1        0.0647
    120 H           8.0467   -1.8923    0.0000 H       1  UNL1        0.0584
    121 H           8.4452   -2.5826    0.0000 H       1  UNL1        0.0584
    122 H          12.6583   -3.6900    0.0000 H       1  UNL1        0.2101
    123 H           9.8524   -5.3100    0.0000 H       1  UNL1        0.2100
    124 H           8.1204   -3.6900    0.0000 H       1  UNL1        0.2100
    125 H           8.1204   -0.6900    0.0000 H       1  UNL1        0.2095
@<TRIPOS>BOND
     1    20     1    1
     2     1    88    1
     3    37     2    1
     4    43     2    1
     5     3    39    2
     6     4    40    1
     7     4    42    1
     8     5    43    1
     9     5    46    1
    10     6    42    2
    11    44     7    1
    12     7    98    1
    13    45     8    1
    14     8    50    1
    15    47     9    1
    16    49     9    1
    17    10    49    1
    18    10    53    1
    19    51    11    1
    20    11   110    1
    21    52    12    1
    22    12   113    1
    23    54    13    1
    24    13   114    1
    25    14    55    1
    26    56    14    1
    27    15    56    1
    28    15    60    1
    29    57    16    1
    30    16   122    1
    31    58    17    1
    32    17   123    1
    33    59    18    1
    34    18   124    1
    35    19    61    1
    36    19   125    1
    37    20    21    1
    38    20    22    1
    39    20    29    1
    40    21    23    1
    41    21    30    1
    42    21    62    1
    43    22    25    1
    44    22    26    1
    45    22    34    1
    46    23    24    1
    47    23    27    1
    48    23    63    1
    49    24    28    1
    50    24    33    1
    51    24    39    1
    52    25    31    1
    53    25    38    1
    54    25    64    1
    55    26    27    1
    56    26    65    1
    57    26    66    1
    58    27    67    1
    59    27    68    1
    60    28    32    1
    61    28    35    1
    62    28    69    1
    63    29    31    1
    64    29    70    1
    65    29    71    1
    66    30    32    1
    67    30    72    1
    68    30    73    1
    69    31    74    1
    70    31    75    1
    71    32    76    1
    72    32    77    1
    73    33    36    1
    74    33    78    1
    75    33    79    1
    76    34    80    1
    77    34    81    1
    78    34    82    1
    79    35    37    1
    80    35    83    1
    81    35    84    1
    82    36    37    1
    83    36    85    1
    84    36    86    1
    85    37    87    1
    86    38    40    1
    87    38    41    2
    88    39    89    1
    89    40    90    1
    90    40    91    1
    91    41    42    1
    92    41    92    1
    93    43    44    1
    94    43    93    1
    95    44    45    1
    96    44    94    1
    97    45    47    1
    98    45    95    1
    99    46    47    1
   100    46    48    1
   101    46    96    1
   102    47    97    1
   103    48    99    1
   104    48   100    1
   105    48   101    1
   106    49    51    1
   107    49   102    1
   108    50   103    1
   109    50   104    1
   110    50   105    1
   111    51    52    1
   112    51   106    1
   113    52    54    1
   114    52   107    1
   115    53    54    1
   116    53    55    1
   117    53   108    1
   118    54   109    1
   119    55   111    1
   120    55   112    1
   121    56    57    1
   122    56   115    1
   123    57    58    1
   124    57   116    1
   125    58    59    1
   126    58   117    1
   127    59    60    1
   128    59   118    1
   129    60    61    1
   130    60   119    1
   131    61   120    1
   132    61   121    1
