@<TRIPOS>MOLECULE
IMPHY005990
 17 17 0 0 0
SMALL
GASTEIGER

@<TRIPOS>ATOM
      1 N           5.9150   -0.4594    0.0000 N.ar    1  UNL1       -0.3482
      2 N           2.4608    0.1795    0.0000 N.3     1  UNL1       -0.3296
      3 N           6.4150    1.0794    0.0000 N.ar    1  UNL1       -0.2440
      4 C           4.1550   -0.1807    0.0000 C.3     1  UNL1        0.0013
      5 C           5.1060    0.1284    0.0000 C.ar    1  UNL1        0.0365
      6 C           3.4118    0.4885    0.0000 C.3     1  UNL1       -0.0015
      7 C           5.4150    1.0794    0.0000 C.ar    1  UNL1        0.0484
      8 C           6.7240    0.1284    0.0000 C.ar    1  UNL1        0.0935
      9 H           3.6664   -0.5624    0.0000 H       1  UNL1        0.0340
     10 H           4.4460   -0.7281    0.0000 H       1  UNL1        0.0340
     11 H           3.9004    0.8702    0.0000 H       1  UNL1        0.0425
     12 H           3.1207    1.0359    0.0000 H       1  UNL1        0.0425
     13 H           5.9150   -1.0794    0.0000 H       1  UNL1        0.1665
     14 H           5.0506    1.5810    0.0000 H       1  UNL1        0.0848
     15 H           7.3137   -0.0632    0.0000 H       1  UNL1        0.1027
     16 H           2.0000    0.5943    0.0000 H       1  UNL1        0.1182
     17 H           2.3318   -0.4270    0.0000 H       1  UNL1        0.1182
@<TRIPOS>BOND
     1     1     5   ar
     2     1     8   ar
     3     1    13    1
     4     2     6    1
     5     2    16    1
     6     2    17    1
     7     3     7   ar
     8     3     8   ar
     9     4     5    1
    10     4     6    1
    11     4     9    1
    12     4    10    1
    13     5     7   ar
    14     6    11    1
    15     6    12    1
    16     7    14    1
    17     8    15    1
