@<TRIPOS>MOLECULE
IMPHY001561
 39 42 0 0 0
SMALL
GASTEIGER

@<TRIPOS>ATOM
      1 O           4.6419    1.3137    0.0000 O.2     1  UNL1       -0.4523
      2 O           3.7239   -1.2347    0.0000 O.3     1  UNL1       -0.4554
      3 O           2.8718    0.3169    0.0000 O.3     1  UNL1       -0.3390
      4 O           7.2400   -0.1863    0.0000 O.2     1  UNL1       -0.2863
      5 O           8.1442    1.3106    0.0000 O.3     1  UNL1       -0.5055
      6 O           6.3861    4.3830    0.0000 O.3     1  UNL1       -0.5063
      7 O           5.5611   -4.3830    0.0000 O.3     1  UNL1       -0.5066
      8 C           5.5080   -0.1863    0.0000 C.ar    1  UNL1        0.0773
      9 C           4.6419    0.3137    0.0000 C.ar    1  UNL1        0.1850
     10 C           3.7319   -0.1931    0.0000 C.3     1  UNL1        0.2614
     11 C           5.5240   -1.2278    0.0000 C.ar    1  UNL1        0.0313
     12 C           6.3740    1.3137    0.0000 C.ar    1  UNL1        0.1063
     13 C           6.3740    0.3137    0.0000 C.ar    1  UNL1        0.2043
     14 C           5.5080    1.8137    0.0000 C.ar    1  UNL1        0.1461
     15 C           4.6260   -1.7555    0.0000 C.ar    1  UNL1        0.1358
     16 C           7.2840    1.8206    0.0000 C.ar    1  UNL1        0.1376
     17 C           7.2920    2.8622    0.0000 C.ar    1  UNL1        0.0332
     18 C           6.4760   -1.7484    0.0000 C.ar    1  UNL1       -0.0469
     19 C           5.4919    2.8552    0.0000 C.ar    1  UNL1        0.0234
     20 C           4.6176   -2.8405    0.0000 C.ar    1  UNL1        0.0223
     21 C           6.3899    3.3830    0.0000 C.ar    1  UNL1        0.1267
     22 C           6.4927   -2.8333    0.0000 C.ar    1  UNL1       -0.0194
     23 C           5.5572   -3.3830    0.0000 C.ar    1  UNL1        0.1204
     24 C           8.1600    3.3588    0.0000 C.3     1  UNL1       -0.0327
     25 C           2.0000   -0.1731    0.0000 C.3     1  UNL1        0.0409
     26 H           3.7403    0.4268    0.0000 H       1  UNL1        0.1145
     27 H           7.0068   -1.4281    0.0000 H       1  UNL1        0.0626
     28 H           4.9514    3.1590    0.0000 H       1  UNL1        0.0691
     29 H           4.0795   -3.1484    0.0000 H       1  UNL1        0.0691
     30 H           7.0332   -3.1370    0.0000 H       1  UNL1        0.0654
     31 H           8.4679    2.8207    0.0000 H       1  UNL1        0.0280
     32 H           8.6981    3.6668    0.0000 H       1  UNL1        0.0280
     33 H           7.8520    3.8970    0.0000 H       1  UNL1        0.0280
     34 H           1.6962    0.3674    0.0000 H       1  UNL1        0.0525
     35 H           1.4595   -0.4769    0.0000 H       1  UNL1        0.0525
     36 H           2.3038   -0.7136    0.0000 H       1  UNL1        0.0525
     37 H           8.6847    1.6144    0.0000 H       1  UNL1        0.2922
     38 H           5.8480    4.6909    0.0000 H       1  UNL1        0.2921
     39 H           6.0992   -4.6909    0.0000 H       1  UNL1        0.2921
@<TRIPOS>BOND
     1     1     9   ar
     2     1    14   ar
     3     2    10    1
     4     2    15    1
     5     3    10    1
     6     3    25    1
     7     4    13    2
     8     5    16    1
     9     5    37    1
    10     6    21    1
    11     6    38    1
    12     7    23    1
    13     7    39    1
    14     8     9   ar
    15     8    11    1
    16     8    13   ar
    17     9    10    1
    18    10    26    1
    19    11    15   ar
    20    11    18   ar
    21    12    13   ar
    22    12    14   ar
    23    12    16   ar
    24    14    19   ar
    25    15    20   ar
    26    16    17   ar
    27    17    21   ar
    28    17    24    1
    29    18    22   ar
    30    18    27    1
    31    19    21   ar
    32    19    28    1
    33    20    23   ar
    34    20    29    1
    35    22    23   ar
    36    22    30    1
    37    24    31    1
    38    24    32    1
    39    24    33    1
    40    25    34    1
    41    25    35    1
    42    25    36    1
