@<TRIPOS>MOLECULE
IMPHY012693
 54 57 0 0 0
SMALL
GASTEIGER

@<TRIPOS>ATOM
      1 O           8.7716    2.6672    0.0000 O.3     1  UNL1       -0.3947
      2 O           2.0000   -2.2374    0.0000 O.2     1  UNL1       -0.3004
      3 C           6.2038    0.2536    0.0000 C.3     1  UNL1       -0.0253
      4 C           5.3352    0.7493    0.0000 C.3     1  UNL1       -0.0297
      5 C           4.4278    0.2379    0.0000 C.3     1  UNL1       -0.0250
      6 C           4.4250   -0.8037    0.0000 C.3     1  UNL1       -0.0235
      7 C           6.1793    1.4349    0.0000 C.3     1  UNL1       -0.0439
      8 C           6.8554    2.4040    0.0000 C.3     1  UNL1       -0.0356
      9 C           7.1328    0.6236    0.0000 C.3     1  UNL1       -0.0419
     10 C           6.2250   -0.7878    0.0000 C.3     1  UNL1       -0.0468
     11 C           7.4228    1.5806    0.0000 C.3     1  UNL1       -0.0145
     12 C           5.1813    1.7373    0.0000 C.3     1  UNL1       -0.0489
     13 C           5.3296   -1.3200    0.0000 C.3     1  UNL1       -0.0483
     14 C           5.8578    2.4738    0.0000 C.3     1  UNL1       -0.0496
     15 C           3.4923   -1.3581    0.0000 C.3     1  UNL1        0.0265
     16 C           3.4982    0.7973    0.0000 C.3     1  UNL1       -0.0470
     17 C           4.4305    1.2379    0.0000 C.3     1  UNL1       -0.0590
     18 C           2.5500   -0.8203    0.0000 C.3     1  UNL1       -0.0409
     19 C           2.5529    0.2647    0.0000 C.3     1  UNL1       -0.0517
     20 C           8.4109    1.7346    0.0000 C.3     1  UNL1        0.0473
     21 C           3.9999   -2.2197    0.0000 C.3     1  UNL1       -0.0528
     22 C           3.0000   -2.2285    0.0000 C.2     1  UNL1        0.1264
     23 H           5.8458    1.1011    0.0000 H       1  UNL1        0.0311
     24 H           4.4304   -1.4237    0.0000 H       1  UNL1        0.0315
     25 H           5.8050    1.9293    0.0000 H       1  UNL1        0.0273
     26 H           5.5936    1.2315    0.0000 H       1  UNL1        0.0273
     27 H           7.1627    2.9425    0.0000 H       1  UNL1        0.0304
     28 H           7.2283    0.0110    0.0000 H       1  UNL1        0.0274
     29 H           7.7513    0.5803    0.0000 H       1  UNL1        0.0274
     30 H           6.4459   -1.3671    0.0000 H       1  UNL1        0.0271
     31 H           6.8336   -0.6693    0.0000 H       1  UNL1        0.0271
     32 H           7.8295    1.1127    0.0000 H       1  UNL1        0.0326
     33 H           4.8295    2.2479    0.0000 H       1  UNL1        0.0268
     34 H           4.6053    1.5079    0.0000 H       1  UNL1        0.0268
     35 H           4.9347   -1.7980    0.0000 H       1  UNL1        0.0269
     36 H           5.7329   -1.7909    0.0000 H       1  UNL1        0.0269
     37 H           6.0376    3.0671    0.0000 H       1  UNL1        0.0268
     38 H           5.3193    2.7811    0.0000 H       1  UNL1        0.0268
     39 H           3.9040    1.2660    0.0000 H       1  UNL1        0.0271
     40 H           3.1058    1.2774    0.0000 H       1  UNL1        0.0271
     41 H           5.0505    1.2362    0.0000 H       1  UNL1        0.0235
     42 H           4.4322    1.8579    0.0000 H       1  UNL1        0.0235
     43 H           3.8105    1.2396    0.0000 H       1  UNL1        0.0235
     44 H           1.9394   -0.7126    0.0000 H       1  UNL1        0.0275
     45 H           2.3393   -1.4034    0.0000 H       1  UNL1        0.0275
     46 H           2.3454    0.8489    0.0000 H       1  UNL1        0.0266
     47 H           1.9418    0.1602    0.0000 H       1  UNL1        0.0266
     48 H           8.3985    1.1147    0.0000 H       1  UNL1        0.0560
     49 H           9.0192    1.6147    0.0000 H       1  UNL1        0.0560
     50 H           3.4658   -2.5344    0.0000 H       1  UNL1        0.0239
     51 H           4.3147   -2.7539    0.0000 H       1  UNL1        0.0239
     52 H           4.5341   -1.9050    0.0000 H       1  UNL1        0.0239
     53 H           3.3147   -2.7627    0.0000 H       1  UNL1        0.1032
     54 H           9.3842    2.7627    0.0000 H       1  UNL1        0.2094
@<TRIPOS>BOND
     1     1    20    1
     2     1    54    1
     3     2    22    2
     4     3     4    1
     5     3     7    1
     6     3     9    1
     7     3    10    1
     8     4     5    1
     9     4    12    1
    10     4    23    1
    11     5     6    1
    12     5    16    1
    13     5    17    1
    14     6    13    1
    15     6    15    1
    16     6    24    1
    17     7     8    1
    18     7    25    1
    19     7    26    1
    20     8    11    1
    21     8    14    1
    22     8    27    1
    23     9    11    1
    24     9    28    1
    25     9    29    1
    26    10    13    1
    27    10    30    1
    28    10    31    1
    29    11    20    1
    30    11    32    1
    31    12    14    1
    32    12    33    1
    33    12    34    1
    34    13    35    1
    35    13    36    1
    36    14    37    1
    37    14    38    1
    38    15    18    1
    39    15    21    1
    40    15    22    1
    41    16    19    1
    42    16    39    1
    43    16    40    1
    44    17    41    1
    45    17    42    1
    46    17    43    1
    47    18    19    1
    48    18    44    1
    49    18    45    1
    50    19    46    1
    51    19    47    1
    52    20    48    1
    53    20    49    1
    54    21    50    1
    55    21    51    1
    56    21    52    1
    57    22    53    1
