@<TRIPOS>MOLECULE
IMPHY013691
 127 133 0 0 0
SMALL
GASTEIGER

@<TRIPOS>ATOM
      1 O           8.0622   -5.0496    0.0000 O.3     1  UNL1       -0.3445
      2 O           9.8160    4.2298    0.0000 O.3     1  UNL1       -0.4318
      3 O          10.5063   -4.3579    0.0000 O.2     1  UNL1       -0.3004
      4 O          10.6993    2.7400    0.0000 O.2     1  UNL1       -0.2501
      5 O           6.3301   -5.0496    0.0000 O.3     1  UNL1       -0.3394
      6 O          10.6646    5.7398    0.0000 O.3     1  UNL1       -0.3312
      7 O           8.0622   -7.0496    0.0000 O.3     1  UNL1       -0.3841
      8 O           6.3301   -8.0496    0.0000 O.3     1  UNL1       -0.3864
      9 O          11.5595    3.2499    0.0000 O.3     1  UNL1       -0.3829
     10 O           4.5981   -7.0496    0.0000 O.3     1  UNL1       -0.3864
     11 O          13.2799    4.2699    0.0000 O.3     1  UNL1       -0.3864
     12 O           3.7320   -5.5496    0.0000 O.3     1  UNL1       -0.4621
     13 O          13.2567    6.2698    0.0000 O.3     1  UNL1       -0.3865
     14 O          10.6415    7.7396    0.0000 O.3     1  UNL1       -0.3924
     15 O           2.8660   -4.0496    0.0000 O.2     1  UNL1       -0.2512
     16 C           8.9632   -0.3494    0.0000 C.3     1  UNL1       -0.0194
     17 C           8.0992   -0.8527    0.0000 C.3     1  UNL1       -0.0257
     18 C           8.0871   -1.8943    0.0000 C.3     1  UNL1       -0.0246
     19 C           8.9594    0.6506    0.0000 C.3     1  UNL1       -0.0051
     20 C           8.9872   -2.4186    0.0000 C.3     1  UNL1       -0.0211
     21 C           9.8752   -0.8527    0.0000 C.3     1  UNL1       -0.0463
     22 C           8.0914    1.1473    0.0000 C.2     1  UNL1       -0.0629
     23 C           9.8872   -1.8943    0.0000 C.3     1  UNL1       -0.0482
     24 C           8.0714    2.1887    0.0000 C.3     1  UNL1       -0.0031
     25 C           8.9997   -3.5035    0.0000 C.3     1  UNL1        0.0526
     26 C           7.2312   -0.3560    0.0000 C.3     1  UNL1       -0.0306
     27 C           9.8674    1.1610    0.0000 C.3     1  UNL1       -0.0424
     28 C           7.1372   -2.4186    0.0000 C.3     1  UNL1       -0.0447
     29 C           8.9674    2.7199    0.0000 C.3     1  UNL1        0.0744
     30 C           9.9474   -0.1719    0.0000 C.3     1  UNL1       -0.0585
     31 C           9.8714    2.2026    0.0000 C.3     1  UNL1       -0.0359
     32 C           7.2274    0.6440    0.0000 C.2     1  UNL1       -0.0836
     33 C           8.0622   -4.0496    0.0000 C.3     1  UNL1        0.0738
     34 C           7.2230   -1.3909    0.0000 C.3     1  UNL1       -0.0590
     35 C           7.1246   -3.5035    0.0000 C.3     1  UNL1       -0.0251
     36 C           9.9448    0.4808    0.0000 C.3     1  UNL1       -0.0553
     37 C           7.1174    2.7057    0.0000 C.3     1  UNL1       -0.0403
     38 C           8.9715    3.8049    0.0000 C.3     1  UNL1       -0.0362
     39 C           7.0965    3.7905    0.0000 C.3     1  UNL1       -0.0343
     40 C           8.0298    4.3438    0.0000 C.3     1  UNL1       -0.0468
     41 C           9.9997   -3.4958    0.0000 C.3     1  UNL1       -0.0504
     42 C           9.5064   -4.3656    0.0000 C.2     1  UNL1        0.1289
     43 C           9.8276    3.2299    0.0000 C.2     1  UNL1        0.3161
     44 C           6.5832    4.6487    0.0000 C.3     1  UNL1       -0.0598
     45 C           6.0966    3.7750    0.0000 C.3     1  UNL1       -0.0598
     46 C           7.1962   -5.5496    0.0000 C.3     1  UNL1        0.1883
     47 C           7.1962   -6.5496    0.0000 C.3     1  UNL1        0.1341
     48 C          10.6762    4.7398    0.0000 C.3     1  UNL1        0.2337
     49 C           6.3301   -7.0496    0.0000 C.3     1  UNL1        0.1141
     50 C           5.4641   -5.5496    0.0000 C.3     1  UNL1        0.1240
     51 C          11.5479    4.2499    0.0000 C.3     1  UNL1        0.1455
     52 C           5.4641   -6.5496    0.0000 C.3     1  UNL1        0.1129
     53 C          12.4081    4.7599    0.0000 C.3     1  UNL1        0.1152
     54 C          11.5248    6.2497    0.0000 C.3     1  UNL1        0.1140
     55 C           4.5981   -5.0496    0.0000 C.3     1  UNL1        0.1211
     56 C          12.3965    5.7598    0.0000 C.3     1  UNL1        0.1120
     57 C          11.5132    7.2497    0.0000 C.3     1  UNL1        0.0731
     58 C           2.8660   -5.0496    0.0000 C.2     1  UNL1        0.3040
     59 C           2.0000   -5.5496    0.0000 C.3     1  UNL1        0.0332
     60 H           8.6349   -1.1648    0.0000 H       1  UNL1        0.0315
     61 H           9.5265   -2.7244    0.0000 H       1  UNL1        0.0316
     62 H          10.4872   -0.9517    0.0000 H       1  UNL1        0.0271
     63 H          10.0775   -0.2666    0.0000 H       1  UNL1        0.0271
     64 H          10.1030   -2.4755    0.0000 H       1  UNL1        0.0269
     65 H          10.4968   -1.7811    0.0000 H       1  UNL1        0.0269
     66 H           7.5417    1.8664    0.0000 H       1  UNL1        0.0357
     67 H           6.6202   -0.2507    0.0000 H       1  UNL1        0.0310
     68 H           7.0214   -0.9395    0.0000 H       1  UNL1        0.0310
     69 H          10.0742    0.5765    0.0000 H       1  UNL1        0.0274
     70 H          10.4787    1.2647    0.0000 H       1  UNL1        0.0274
     71 H           6.9349   -1.8325    0.0000 H       1  UNL1        0.0271
     72 H           6.5252   -2.5176    0.0000 H       1  UNL1        0.0271
     73 H          10.0574   -0.7821    0.0000 H       1  UNL1        0.0235
     74 H          10.5575   -0.0619    0.0000 H       1  UNL1        0.0235
     75 H           9.8374    0.4382    0.0000 H       1  UNL1        0.0235
     76 H          10.4819    2.0942    0.0000 H       1  UNL1        0.0276
     77 H          10.0827    2.7855    0.0000 H       1  UNL1        0.0276
     78 H           6.6892    0.9519    0.0000 H       1  UNL1        0.0572
     79 H           7.5246   -4.3586    0.0000 H       1  UNL1        0.0606
     80 H           7.5351   -0.8552    0.0000 H       1  UNL1        0.0235
     81 H           6.6873   -1.0789    0.0000 H       1  UNL1        0.0235
     82 H           6.9109   -1.9267    0.0000 H       1  UNL1        0.0235
     83 H           6.5151   -3.3903    0.0000 H       1  UNL1        0.0291
     84 H           6.9088   -4.0847    0.0000 H       1  UNL1        0.0291
     85 H           9.8395   -0.1302    0.0000 H       1  UNL1        0.0238
     86 H          10.5558    0.3755    0.0000 H       1  UNL1        0.0238
     87 H          10.0502    1.0918    0.0000 H       1  UNL1        0.0238
     88 H           6.5046    2.8000    0.0000 H       1  UNL1        0.0276
     89 H           6.9197    2.1181    0.0000 H       1  UNL1        0.0276
     90 H           9.5820    3.6965    0.0000 H       1  UNL1        0.0276
     91 H           9.1828    4.3878    0.0000 H       1  UNL1        0.0276
     92 H           8.4253    4.8213    0.0000 H       1  UNL1        0.0271
     93 H           7.6270    4.8151    0.0000 H       1  UNL1        0.0271
     94 H          10.0045   -4.1157    0.0000 H       1  UNL1        0.0240
     95 H          10.6197   -3.4910    0.0000 H       1  UNL1        0.0240
     96 H           9.9949   -2.8758    0.0000 H       1  UNL1        0.0240
     97 H           9.2005   -4.9049    0.0000 H       1  UNL1        0.1033
     98 H           7.1153    4.9669    0.0000 H       1  UNL1        0.0235
     99 H           6.2650    5.1808    0.0000 H       1  UNL1        0.0235
    100 H           6.0511    4.3304    0.0000 H       1  UNL1        0.0235
    101 H           6.0871    4.3950    0.0000 H       1  UNL1        0.0235
    102 H           5.4767    3.7655    0.0000 H       1  UNL1        0.0235
    103 H           6.1062    3.1551    0.0000 H       1  UNL1        0.0235
    104 H           7.7331   -5.8596    0.0000 H       1  UNL1        0.0938
    105 H           7.1962   -7.1696    0.0000 H       1  UNL1        0.0671
    106 H          10.1357    5.0436    0.0000 H       1  UNL1        0.1085
    107 H           5.7932   -7.3596    0.0000 H       1  UNL1        0.0648
    108 H           5.4641   -4.9296    0.0000 H       1  UNL1        0.0658
    109 H          11.0146    3.9337    0.0000 H       1  UNL1        0.0683
    110 H           5.4641   -7.1696    0.0000 H       1  UNL1        0.0647
    111 H           8.0622   -7.6696    0.0000 H       1  UNL1        0.2101
    112 H          12.9414    5.0761    0.0000 H       1  UNL1        0.0648
    113 H          10.9843    6.5535    0.0000 H       1  UNL1        0.0647
    114 H           4.9966   -4.5746    0.0000 H       1  UNL1        0.0724
    115 H           4.1996   -4.5746    0.0000 H       1  UNL1        0.0724
    116 H          12.3894    6.3797    0.0000 H       1  UNL1        0.0647
    117 H           5.7932   -8.3596    0.0000 H       1  UNL1        0.2100
    118 H          12.1000    2.9462    0.0000 H       1  UNL1        0.2102
    119 H           4.5981   -7.6696    0.0000 H       1  UNL1        0.2100
    120 H          12.1250    7.1491    0.0000 H       1  UNL1        0.0584
    121 H          11.7185    7.8347    0.0000 H       1  UNL1        0.0584
    122 H          13.8132    4.5861    0.0000 H       1  UNL1        0.2100
    123 H          13.2496    6.8897    0.0000 H       1  UNL1        0.2100
    124 H          10.6343    8.3596    0.0000 H       1  UNL1        0.2095
    125 H           1.6900   -5.0126    0.0000 H       1  UNL1        0.0342
    126 H           1.4631   -5.8596    0.0000 H       1  UNL1        0.0342
    127 H           2.3100   -6.0865    0.0000 H       1  UNL1        0.0342
@<TRIPOS>BOND
     1     1    33    1
     2     1    46    1
     3     2    43    1
     4     2    48    1
     5     3    42    2
     6     4    43    2
     7     5    46    1
     8     5    50    1
     9     6    48    1
    10     6    54    1
    11     7    47    1
    12     7   111    1
    13     8    49    1
    14     8   117    1
    15     9    51    1
    16     9   118    1
    17    10    52    1
    18    10   119    1
    19    11    53    1
    20    11   122    1
    21    12    55    1
    22    12    58    1
    23    13    56    1
    24    13   123    1
    25    14    57    1
    26    14   124    1
    27    15    58    2
    28    16    17    1
    29    16    19    1
    30    16    21    1
    31    16    30    1
    32    17    18    1
    33    17    26    1
    34    17    60    1
    35    18    20    1
    36    18    28    1
    37    18    34    1
    38    19    22    1
    39    19    27    1
    40    19    36    1
    41    20    23    1
    42    20    25    1
    43    20    61    1
    44    21    23    1
    45    21    62    1
    46    21    63    1
    47    22    24    1
    48    22    32    2
    49    23    64    1
    50    23    65    1
    51    24    29    1
    52    24    37    1
    53    24    66    1
    54    25    33    1
    55    25    41    1
    56    25    42    1
    57    26    32    1
    58    26    67    1
    59    26    68    1
    60    27    31    1
    61    27    69    1
    62    27    70    1
    63    28    35    1
    64    28    71    1
    65    28    72    1
    66    29    31    1
    67    29    38    1
    68    29    43    1
    69    30    73    1
    70    30    74    1
    71    30    75    1
    72    31    76    1
    73    31    77    1
    74    32    78    1
    75    33    35    1
    76    33    79    1
    77    34    80    1
    78    34    81    1
    79    34    82    1
    80    35    83    1
    81    35    84    1
    82    36    85    1
    83    36    86    1
    84    36    87    1
    85    37    39    1
    86    37    88    1
    87    37    89    1
    88    38    40    1
    89    38    90    1
    90    38    91    1
    91    39    40    1
    92    39    44    1
    93    39    45    1
    94    40    92    1
    95    40    93    1
    96    41    94    1
    97    41    95    1
    98    41    96    1
    99    42    97    1
   100    44    98    1
   101    44    99    1
   102    44   100    1
   103    45   101    1
   104    45   102    1
   105    45   103    1
   106    46    47    1
   107    46   104    1
   108    47    49    1
   109    47   105    1
   110    48    51    1
   111    48   106    1
   112    49    52    1
   113    49   107    1
   114    50    52    1
   115    50    55    1
   116    50   108    1
   117    51    53    1
   118    51   109    1
   119    52   110    1
   120    53    56    1
   121    53   112    1
   122    54    56    1
   123    54    57    1
   124    54   113    1
   125    55   114    1
   126    55   115    1
   127    56   116    1
   128    57   120    1
   129    57   121    1
   130    58    59    1
   131    59   125    1
   132    59   126    1
   133    59   127    1
