@<TRIPOS>MOLECULE
IMPHY000714
 41 44 0 0 0
SMALL
GASTEIGER

@<TRIPOS>ATOM
      1 C        2534.6900 2555.6800    0.0000 C.3     1  UNL1        0.0054
      2 C        2534.6900 2515.6800    0.0000 C.3     1  UNL1        0.0610
      3 C        2534.6900 2475.3800    0.0000 C.3     1  UNL1        0.0080
      4 C        2500.1500 2455.2400    0.0000 C.3     1  UNL1        0.0390
      5 C        2500.1500 2406.4000    0.0000 C.3     1  UNL1        0.0405
      6 C        2534.4900 2385.7600    0.0000 C.3     1  UNL1        0.1775
      7 O        2569.0300 2405.8100    0.0000 O.3     1  UNL1       -0.2182
      8 C        2534.4900 2345.7600    0.0000 C.ar    1  UNL1        0.0484
      9 C        2495.2900 2346.4500    0.0000 C.ar    1  UNL1        0.0420
     10 C        2482.7800 2308.0400    0.0000 C.ar    1  UNL1        0.1795
     11 O        2514.4400 2284.2200    0.0000 O.2     1  UNL1       -0.4476
     12 C        2547.4900 2306.7500    0.0000 C.ar    1  UNL1        0.1778
     13 C        2465.5100 2435.1900    0.0000 C.3     1  UNL1        0.0031
     14 C        2465.6100 2475.3800    0.0000 C.3     1  UNL1        0.2211
     15 C        2465.6100 2515.6800    0.0000 C.3     1  UNL1        0.0713
     16 C        2500.1500 2535.8300    0.0000 C.3     1  UNL1        0.1235
     17 O        2500.1500 2575.8300    0.0000 O.3     1  UNL1       -0.3309
     18 C        2465.5100 2595.7800    0.0000 C.3     1  UNL1        0.2694
     19 O        2465.5100 2635.7800    0.0000 O.3     1  UNL1       -0.3256
     20 C        2430.8700 2655.8300    0.0000 C.3     1  UNL1        0.1835
     21 C        2430.8700 2695.8300    0.0000 C.3     1  UNL1        0.2142
     22 O        2396.2300 2715.7800    0.0000 O.3     1  UNL1       -0.2176
     23 C        2396.1300 2635.7800    0.0000 C.3     1  UNL1        0.2144
     24 C        2396.1300 2595.7800    0.0000 C.3     1  UNL1        0.2198
     25 C        2430.8700 2575.8300    0.0000 C.3     1  UNL1        0.2406
     26 O        2430.8700 2535.8300    0.0000 O.3     1  UNL1       -0.2149
     27 O        2361.4900 2575.8300    0.0000 O.3     1  UNL1       -0.2174
     28 O        2361.4900 2655.8300    0.0000 O.3     1  UNL1       -0.2176
     29 C        2430.8700 2455.3300    0.0000 C.2     1  UNL1        0.3917
     30 O        2396.2300 2475.3800    0.0000 O.co2   1  UNL1       -0.2429
     31 O        2430.8700 2415.3300    0.0000 O.co2   1  UNL1       -0.2429
     32 O        2430.8700 2495.3300    0.0000 O.3     1  UNL1       -0.2140
     33 C        2569.2300 2455.2400    0.0000 C.3     1  UNL1        0.0004
     34 C        2603.7700 2475.3800    0.0000 C.3     1  UNL1        0.0031
     35 C        2603.7700 2515.6800    0.0000 C.3     1  UNL1        0.0415
     36 C        2569.2300 2535.8300    0.0000 C.3     1  UNL1        0.2167
     37 C        2569.2300 2575.8300    0.0000 C.2     1  UNL1        0.3449
     38 O        2603.8700 2595.7800    0.0000 O.3     1  UNL1       -0.4427
     39 C        2638.5100 2575.8300    0.0000 C.3     1  UNL1        0.2557
     40 O        2534.5900 2595.7800    0.0000 O.2     1  UNL1       -0.2474
     41 O        2603.8700 2555.7800    0.0000 O.3     1  UNL1       -0.2142
@<TRIPOS>BOND
     1     2     1    1
     2     2     3    1
     3     2    16    1
     4     2    36    1
     5     3     4    1
     6     3    33    1
     7     4     5    1
     8     4    13    1
     9     4    14    1
    10     6     5    1
    11     6     7    1
    12     6     8    1
    13     8     9   ar
    14     8    12   ar
    15     9    10   ar
    16    10    11   ar
    17    12    11   ar
    18    14    29    1
    19    14    32    1
    20    15    14    1
    21    16    15    1
    22    16    17    1
    23    18    17    1
    24    18    19    1
    25    18    25    1
    26    19    20    1
    27    20    21    1
    28    20    23    1
    29    21    22    1
    30    23    28    1
    31    24    23    1
    32    24    27    1
    33    25    24    1
    34    25    26    1
    35    29    30   ar
    36    29    31   ar
    37    33    34    1
    38    35    34    1
    39    36    35    1
    40    36    37    1
    41    36    41    1
    42    37    38    1
    43    37    40    2
    44    38    39    1
