@<TRIPOS>MOLECULE
IMPHY007296
 101 100 0 0 0
SMALL
GASTEIGER

@<TRIPOS>ATOM
      1 C           9.7942    0.7500    0.0000 C.3     1  UNL1       -0.0531
      2 C           8.9282    0.2500    0.0000 C.3     1  UNL1       -0.0531
      3 C          10.6603    0.2500    0.0000 C.3     1  UNL1       -0.0531
      4 C           8.0622    0.7500    0.0000 C.3     1  UNL1       -0.0531
      5 C          11.5263    0.7500    0.0000 C.3     1  UNL1       -0.0531
      6 C          12.3923    0.2500    0.0000 C.3     1  UNL1       -0.0531
      7 C           7.1962    0.2500    0.0000 C.3     1  UNL1       -0.0531
      8 C          13.2583    0.7500    0.0000 C.3     1  UNL1       -0.0531
      9 C          14.1244    0.2500    0.0000 C.3     1  UNL1       -0.0531
     10 C           6.3301    0.7500    0.0000 C.3     1  UNL1       -0.0530
     11 C          14.9904    0.7500    0.0000 C.3     1  UNL1       -0.0531
     12 C          15.8564    0.2500    0.0000 C.3     1  UNL1       -0.0531
     13 C           5.4641    0.2500    0.0000 C.3     1  UNL1       -0.0528
     14 C          16.7224    0.7500    0.0000 C.3     1  UNL1       -0.0531
     15 C          17.5885    0.2500    0.0000 C.3     1  UNL1       -0.0531
     16 C           4.5981    0.7500    0.0000 C.3     1  UNL1       -0.0505
     17 C          18.4545    0.7500    0.0000 C.3     1  UNL1       -0.0531
     18 C           3.7320    0.2500    0.0000 C.3     1  UNL1       -0.0441
     19 C          19.3205    0.2500    0.0000 C.3     1  UNL1       -0.0531
     20 C          20.1865    0.7500    0.0000 C.3     1  UNL1       -0.0531
     21 C          21.0526    0.2500    0.0000 C.3     1  UNL1       -0.0531
     22 C          21.9186    0.7500    0.0000 C.3     1  UNL1       -0.0531
     23 C          22.7846    0.2500    0.0000 C.3     1  UNL1       -0.0531
     24 C          23.6506    0.7500    0.0000 C.3     1  UNL1       -0.0531
     25 C           2.8660    0.7500    0.0000 C.3     1  UNL1       -0.0533
     26 C          24.5167    0.2500    0.0000 C.3     1  UNL1       -0.0531
     27 C          25.3827    0.7500    0.0000 C.3     1  UNL1       -0.0531
     28 C           3.7320   -0.7500    0.0000 C.3     1  UNL1       -0.0624
     29 C          26.2487    0.2500    0.0000 C.3     1  UNL1       -0.0531
     30 C           2.0000    0.2500    0.0000 C.3     1  UNL1       -0.0650
     31 C          27.1147    0.7500    0.0000 C.3     1  UNL1       -0.0533
     32 C          27.9808    0.2500    0.0000 C.3     1  UNL1       -0.0559
     33 C          28.8468    0.7500    0.0000 C.3     1  UNL1       -0.0653
     34 H           8.5297   -0.2249    0.0000 H       1  UNL1        0.0265
     35 H           9.3267   -0.2249    0.0000 H       1  UNL1        0.0265
     36 H          10.1928    1.2250    0.0000 H       1  UNL1        0.0265
     37 H           9.3957    1.2250    0.0000 H       1  UNL1        0.0265
     38 H          10.2617   -0.2249    0.0000 H       1  UNL1        0.0265
     39 H          11.0588   -0.2249    0.0000 H       1  UNL1        0.0265
     40 H           8.4607    1.2250    0.0000 H       1  UNL1        0.0265
     41 H           7.6636    1.2250    0.0000 H       1  UNL1        0.0265
     42 H          11.9248    1.2250    0.0000 H       1  UNL1        0.0265
     43 H          11.1278    1.2250    0.0000 H       1  UNL1        0.0265
     44 H           6.7976   -0.2249    0.0000 H       1  UNL1        0.0265
     45 H           7.5947   -0.2249    0.0000 H       1  UNL1        0.0265
     46 H          11.9938   -0.2249    0.0000 H       1  UNL1        0.0265
     47 H          12.7908   -0.2249    0.0000 H       1  UNL1        0.0265
     48 H          13.6569    1.2250    0.0000 H       1  UNL1        0.0265
     49 H          12.8598    1.2250    0.0000 H       1  UNL1        0.0265
     50 H          13.7258   -0.2249    0.0000 H       1  UNL1        0.0265
     51 H          14.5229   -0.2249    0.0000 H       1  UNL1        0.0265
     52 H           6.7287    1.2250    0.0000 H       1  UNL1        0.0265
     53 H           5.9316    1.2250    0.0000 H       1  UNL1        0.0265
     54 H          15.3889    1.2250    0.0000 H       1  UNL1        0.0265
     55 H          14.5919    1.2250    0.0000 H       1  UNL1        0.0265
     56 H          15.4579   -0.2249    0.0000 H       1  UNL1        0.0265
     57 H          16.2549   -0.2249    0.0000 H       1  UNL1        0.0265
     58 H           5.0656   -0.2249    0.0000 H       1  UNL1        0.0265
     59 H           5.8626   -0.2249    0.0000 H       1  UNL1        0.0265
     60 H          17.1210    1.2250    0.0000 H       1  UNL1        0.0265
     61 H          16.3239    1.2250    0.0000 H       1  UNL1        0.0265
     62 H          17.1899   -0.2249    0.0000 H       1  UNL1        0.0265
     63 H          17.9870   -0.2249    0.0000 H       1  UNL1        0.0265
     64 H           4.9966    1.2250    0.0000 H       1  UNL1        0.0268
     65 H           4.1996    1.2250    0.0000 H       1  UNL1        0.0268
     66 H          18.8530    1.2250    0.0000 H       1  UNL1        0.0265
     67 H          18.0560    1.2250    0.0000 H       1  UNL1        0.0265
     68 H           4.4682   -0.1750    0.0000 H       1  UNL1        0.0298
     69 H          18.9220   -0.2249    0.0000 H       1  UNL1        0.0265
     70 H          19.7190   -0.2249    0.0000 H       1  UNL1        0.0265
     71 H          20.5851    1.2250    0.0000 H       1  UNL1        0.0265
     72 H          19.7880    1.2250    0.0000 H       1  UNL1        0.0265
     73 H          20.6540   -0.2249    0.0000 H       1  UNL1        0.0265
     74 H          21.4511   -0.2249    0.0000 H       1  UNL1        0.0265
     75 H          22.3171    1.2250    0.0000 H       1  UNL1        0.0265
     76 H          21.5201    1.2250    0.0000 H       1  UNL1        0.0265
     77 H          22.3861   -0.2249    0.0000 H       1  UNL1        0.0265
     78 H          23.1831   -0.2249    0.0000 H       1  UNL1        0.0265
     79 H          24.0492    1.2250    0.0000 H       1  UNL1        0.0265
     80 H          23.2521    1.2250    0.0000 H       1  UNL1        0.0265
     81 H           3.2646    1.2250    0.0000 H       1  UNL1        0.0265
     82 H           2.4675    1.2250    0.0000 H       1  UNL1        0.0265
     83 H          24.1181   -0.2249    0.0000 H       1  UNL1        0.0265
     84 H          24.9152   -0.2249    0.0000 H       1  UNL1        0.0265
     85 H          25.7812    1.2250    0.0000 H       1  UNL1        0.0265
     86 H          24.9842    1.2250    0.0000 H       1  UNL1        0.0265
     87 H           3.1120   -0.7500    0.0000 H       1  UNL1        0.0232
     88 H           3.7320   -1.3700    0.0000 H       1  UNL1        0.0232
     89 H           4.3520   -0.7500    0.0000 H       1  UNL1        0.0232
     90 H          25.8502   -0.2249    0.0000 H       1  UNL1        0.0265
     91 H          26.6472   -0.2249    0.0000 H       1  UNL1        0.0265
     92 H           1.6900    0.7869    0.0000 H       1  UNL1        0.0230
     93 H           1.4631   -0.0600    0.0000 H       1  UNL1        0.0230
     94 H           2.3100   -0.2869    0.0000 H       1  UNL1        0.0230
     95 H          27.5133    1.2250    0.0000 H       1  UNL1        0.0265
     96 H          26.7162    1.2250    0.0000 H       1  UNL1        0.0265
     97 H          27.5822   -0.2249    0.0000 H       1  UNL1        0.0263
     98 H          28.3793   -0.2249    0.0000 H       1  UNL1        0.0263
     99 H          29.1568    0.2131    0.0000 H       1  UNL1        0.0230
    100 H          29.3837    1.0600    0.0000 H       1  UNL1        0.0230
    101 H          28.5368    1.2869    0.0000 H       1  UNL1        0.0230
@<TRIPOS>BOND
     1     1     2    1
     2     1     3    1
     3     1    36    1
     4     1    37    1
     5     2     4    1
     6     2    34    1
     7     2    35    1
     8     3     5    1
     9     3    38    1
    10     3    39    1
    11     4     7    1
    12     4    40    1
    13     4    41    1
    14     5     6    1
    15     5    42    1
    16     5    43    1
    17     6     8    1
    18     6    46    1
    19     6    47    1
    20     7    10    1
    21     7    44    1
    22     7    45    1
    23     8     9    1
    24     8    48    1
    25     8    49    1
    26     9    11    1
    27     9    50    1
    28     9    51    1
    29    10    13    1
    30    10    52    1
    31    10    53    1
    32    11    12    1
    33    11    54    1
    34    11    55    1
    35    12    14    1
    36    12    56    1
    37    12    57    1
    38    13    16    1
    39    13    58    1
    40    13    59    1
    41    14    15    1
    42    14    60    1
    43    14    61    1
    44    15    17    1
    45    15    62    1
    46    15    63    1
    47    16    18    1
    48    16    64    1
    49    16    65    1
    50    17    19    1
    51    17    66    1
    52    17    67    1
    53    18    25    1
    54    18    28    1
    55    18    68    1
    56    19    20    1
    57    19    69    1
    58    19    70    1
    59    20    21    1
    60    20    71    1
    61    20    72    1
    62    21    22    1
    63    21    73    1
    64    21    74    1
    65    22    23    1
    66    22    75    1
    67    22    76    1
    68    23    24    1
    69    23    77    1
    70    23    78    1
    71    24    26    1
    72    24    79    1
    73    24    80    1
    74    25    30    1
    75    25    81    1
    76    25    82    1
    77    26    27    1
    78    26    83    1
    79    26    84    1
    80    27    29    1
    81    27    85    1
    82    27    86    1
    83    28    87    1
    84    28    88    1
    85    28    89    1
    86    29    31    1
    87    29    90    1
    88    29    91    1
    89    30    92    1
    90    30    93    1
    91    30    94    1
    92    31    32    1
    93    31    95    1
    94    31    96    1
    95    32    33    1
    96    32    97    1
    97    32    98    1
    98    33    99    1
    99    33   100    1
   100    33   101    1
