@<TRIPOS>MOLECULE
IMPHY007645
 40 43 0 0 0
SMALL
GASTEIGER

@<TRIPOS>ATOM
      1 O           5.5103    1.4952    0.0000 O.3     1  UNL1       -0.4908
      2 O           7.2762    2.5330    0.0000 O.3     1  UNL1       -0.4914
      3 O           6.3981   -3.0363    0.0000 O.2     1  UNL1       -0.2851
      4 O           2.8680   -0.0121    0.0000 O.2     1  UNL1       -0.4913
      5 O           2.8680   -2.0604    0.0000 O.2     1  UNL1       -0.2840
      6 N           8.1223   -2.0332    0.0000 N.ar    1  UNL1       -0.3576
      7 C           7.2641   -0.5363    0.0000 C.ar    1  UNL1        0.0207
      8 C           6.3981   -0.0363    0.0000 C.ar    1  UNL1        0.0380
      9 C           5.5320   -0.5363    0.0000 C.ar    1  UNL1        0.0009
     10 C           7.2641   -1.5363    0.0000 C.ar    1  UNL1        0.0956
     11 C           8.1741   -0.0294    0.0000 C.ar    1  UNL1       -0.0102
     12 C           5.5320   -1.5363    0.0000 C.ar    1  UNL1        0.0354
     13 C           6.3820    1.0052    0.0000 C.ar    1  UNL1        0.1698
     14 C           6.3981   -2.0363    0.0000 C.ar    1  UNL1        0.2105
     15 C           8.1821    1.0122    0.0000 C.ar    1  UNL1       -0.0084
     16 C           7.2800    1.5330    0.0000 C.ar    1  UNL1        0.1627
     17 C           4.6381   -0.0016    0.0000 C.2     1  UNL1       -0.0076
     18 C           9.0134   -0.5577    0.0000 C.ar    1  UNL1       -0.0379
     19 C           4.6381   -2.0710    0.0000 C.2     1  UNL1        0.0002
     20 C           8.9878   -1.5490    0.0000 C.ar    1  UNL1        0.0028
     21 C           3.7320   -0.5155    0.0000 C.2     1  UNL1        0.1671
     22 C           3.7320   -1.5571    0.0000 C.2     1  UNL1        0.2209
     23 C           5.4987    2.4951    0.0000 C.3     1  UNL1        0.0790
     24 C           8.1403    3.0363    0.0000 C.3     1  UNL1        0.0790
     25 C           2.0000   -0.5088    0.0000 C.3     1  UNL1        0.0790
     26 H           8.7203    1.3201    0.0000 H       1  UNL1        0.0661
     27 H           8.1177   -2.6532    0.0000 H       1  UNL1        0.1654
     28 H           4.6453    0.6183    0.0000 H       1  UNL1        0.0662
     29 H           9.5600   -0.2650    0.0000 H       1  UNL1        0.0638
     30 H           4.6453   -2.6909    0.0000 H       1  UNL1        0.0664
     31 H           9.5185   -1.8696    0.0000 H       1  UNL1        0.0807
     32 H           6.1187    2.5023    0.0000 H       1  UNL1        0.0660
     33 H           5.4915    3.1151    0.0000 H       1  UNL1        0.0660
     34 H           4.8787    2.4879    0.0000 H       1  UNL1        0.0660
     35 H           8.4523    2.5006    0.0000 H       1  UNL1        0.0660
     36 H           8.6760    3.3484    0.0000 H       1  UNL1        0.0660
     37 H           7.8282    3.5720    0.0000 H       1  UNL1        0.0660
     38 H           1.6921    0.0293    0.0000 H       1  UNL1        0.0660
     39 H           1.4619   -0.8167    0.0000 H       1  UNL1        0.0660
     40 H           2.3079   -1.0469    0.0000 H       1  UNL1        0.0660
@<TRIPOS>BOND
     1     1    13    1
     2     1    23    1
     3     2    16    1
     4     2    24    1
     5     3    14    2
     6     4    21    1
     7     4    25    1
     8     5    22    2
     9     6    10   ar
    10     6    20   ar
    11     6    27    1
    12     7     8   ar
    13     7    10    2
    14     7    11   ar
    15     8     9   ar
    16     8    13   ar
    17     9    12   ar
    18     9    17    1
    19    10    14   ar
    20    11    15   ar
    21    11    18   ar
    22    12    14   ar
    23    12    19    2
    24    13    16   ar
    25    15    16   ar
    26    15    26    1
    27    17    21    2
    28    17    28    1
    29    18    20   ar
    30    18    29    1
    31    19    22    1
    32    19    30    1
    33    20    31    1
    34    21    22    1
    35    23    32    1
    36    23    33    1
    37    23    34    1
    38    24    35    1
    39    24    36    1
    40    24    37    1
    41    25    38    1
    42    25    39    1
    43    25    40    1
