@<TRIPOS>MOLECULE
IMPHY005018
 23 24 0 0 0
SMALL
GASTEIGER

@<TRIPOS>ATOM
      1 O           2.0000    0.1377    0.0000 O.3     1  UNL1       -0.3469
      2 O           2.8660   -1.3623    0.0000 O.3     1  UNL1       -0.3632
      3 N           5.5321    0.1169    0.0000 N.ar    1  UNL1       -0.2597
      4 C           3.7320    0.1377    0.0000 C.ar    1  UNL1        0.0319
      5 C           3.7320    1.1377    0.0000 C.ar    1  UNL1       -0.0341
      6 C           2.8660    1.6377    0.0000 C.3     1  UNL1       -0.0035
      7 C           2.8660   -0.3623    0.0000 C.3     1  UNL1        0.1847
      8 C           2.0000    1.1377    0.0000 C.3     1  UNL1        0.0550
      9 C           4.6260   -0.3970    0.0000 C.ar    1  UNL1        0.0464
     10 C           4.6260    1.6723    0.0000 C.ar    1  UNL1       -0.0399
     11 C           5.5321    1.1585    0.0000 C.ar    1  UNL1        0.0281
     12 C           4.6144   -1.3969    0.0000 C.3     1  UNL1       -0.0219
     13 H           3.2646    2.1126    0.0000 H       1  UNL1        0.0336
     14 H           2.4675    2.1126    0.0000 H       1  UNL1        0.0336
     15 H           3.6022   -0.7873    0.0000 H       1  UNL1        0.0963
     16 H           1.7880    1.7203    0.0000 H       1  UNL1        0.0564
     17 H           1.3894    1.0300    0.0000 H       1  UNL1        0.0564
     18 H           4.6188    2.2923    0.0000 H       1  UNL1        0.0635
     19 H           3.9945   -1.3898    0.0000 H       1  UNL1        0.0293
     20 H           4.6073   -2.0169    0.0000 H       1  UNL1        0.0293
     21 H           5.2344   -1.4041    0.0000 H       1  UNL1        0.0293
     22 H           6.0678    1.4706    0.0000 H       1  UNL1        0.0830
     23 H           2.3291   -1.6723    0.0000 H       1  UNL1        0.2128
@<TRIPOS>BOND
     1     1     7    1
     2     1     8    1
     3     2     7    1
     4     2    23    1
     5     3     9   ar
     6     3    11   ar
     7     4     5   ar
     8     4     7    1
     9     4     9   ar
    10     5     6    1
    11     5    10   ar
    12     6     8    1
    13     6    13    1
    14     6    14    1
    15     7    15    1
    16     8    16    1
    17     8    17    1
    18     9    12    1
    19    10    11   ar
    20    10    18    1
    21    11    22    1
    22    12    19    1
    23    12    20    1
    24    12    21    1
