@<TRIPOS>MOLECULE
IMPHY015235
 60 59 0 0 0
SMALL
GASTEIGER

@<TRIPOS>ATOM
      1 C           7.1962    0.2500    0.0000 C.3     1  UNL1       -0.0439
      2 C           8.0622    0.7500    0.0000 C.3     1  UNL1       -0.0505
      3 C           6.3301    0.7500    0.0000 C.3     1  UNL1       -0.0505
      4 C           8.9282    0.2500    0.0000 C.3     1  UNL1       -0.0526
      5 C           9.7942    0.7500    0.0000 C.3     1  UNL1       -0.0504
      6 C           5.4641    0.2500    0.0000 C.3     1  UNL1       -0.0526
      7 C          10.6603    0.2500    0.0000 C.3     1  UNL1       -0.0436
      8 C           4.5981    0.7500    0.0000 C.3     1  UNL1       -0.0505
      9 C           3.7320    0.2500    0.0000 C.3     1  UNL1       -0.0441
     10 C           7.1962   -0.7500    0.0000 C.3     1  UNL1       -0.0624
     11 C          11.5263    0.7500    0.0000 C.3     1  UNL1       -0.0470
     12 C           2.8660    0.7500    0.0000 C.3     1  UNL1       -0.0533
     13 C          10.6603   -0.7500    0.0000 C.3     1  UNL1       -0.0624
     14 C          12.3923    0.2500    0.0000 C.3     1  UNL1       -0.0343
     15 C           3.7320   -0.7500    0.0000 C.3     1  UNL1       -0.0624
     16 C           2.0000    0.2500    0.0000 C.3     1  UNL1       -0.0650
     17 C          13.2583    0.7500    0.0000 C.2     1  UNL1       -0.0853
     18 C          14.1244    0.2500    0.0000 C.2     1  UNL1       -0.0796
     19 C          14.9904    0.7500    0.0000 C.3     1  UNL1       -0.0440
     20 C          14.1244   -0.7500    0.0000 C.3     1  UNL1       -0.0440
     21 H           6.6592   -0.0600    0.0000 H       1  UNL1        0.0298
     22 H           8.4607    1.2250    0.0000 H       1  UNL1        0.0268
     23 H           7.6636    1.2250    0.0000 H       1  UNL1        0.0268
     24 H           6.7287    1.2250    0.0000 H       1  UNL1        0.0268
     25 H           5.9316    1.2250    0.0000 H       1  UNL1        0.0268
     26 H           8.5297   -0.2249    0.0000 H       1  UNL1        0.0265
     27 H           9.3267   -0.2249    0.0000 H       1  UNL1        0.0265
     28 H          10.1928    1.2250    0.0000 H       1  UNL1        0.0268
     29 H           9.3957    1.2250    0.0000 H       1  UNL1        0.0268
     30 H           5.0656   -0.2249    0.0000 H       1  UNL1        0.0265
     31 H           5.8626   -0.2249    0.0000 H       1  UNL1        0.0265
     32 H          11.1972   -0.0600    0.0000 H       1  UNL1        0.0298
     33 H           4.9966    1.2250    0.0000 H       1  UNL1        0.0268
     34 H           4.1996    1.2250    0.0000 H       1  UNL1        0.0268
     35 H           4.2690   -0.0600    0.0000 H       1  UNL1        0.0298
     36 H           6.5762   -0.7500    0.0000 H       1  UNL1        0.0232
     37 H           7.1962   -1.3700    0.0000 H       1  UNL1        0.0232
     38 H           7.8162   -0.7500    0.0000 H       1  UNL1        0.0232
     39 H          11.9248    1.2250    0.0000 H       1  UNL1        0.0271
     40 H          11.1278    1.2250    0.0000 H       1  UNL1        0.0271
     41 H           3.2646    1.2250    0.0000 H       1  UNL1        0.0265
     42 H           2.4675    1.2250    0.0000 H       1  UNL1        0.0265
     43 H          10.0403   -0.7500    0.0000 H       1  UNL1        0.0232
     44 H          10.6603   -1.3700    0.0000 H       1  UNL1        0.0232
     45 H          11.2803   -0.7500    0.0000 H       1  UNL1        0.0232
     46 H          11.9938   -0.2249    0.0000 H       1  UNL1        0.0307
     47 H          12.7908   -0.2249    0.0000 H       1  UNL1        0.0307
     48 H           3.1120   -0.7500    0.0000 H       1  UNL1        0.0232
     49 H           3.7320   -1.3700    0.0000 H       1  UNL1        0.0232
     50 H           4.3520   -0.7500    0.0000 H       1  UNL1        0.0232
     51 H           1.6900    0.7869    0.0000 H       1  UNL1        0.0230
     52 H           1.4631   -0.0600    0.0000 H       1  UNL1        0.0230
     53 H           2.3100   -0.2869    0.0000 H       1  UNL1        0.0230
     54 H          13.2583    1.3700    0.0000 H       1  UNL1        0.0571
     55 H          15.3004    0.2131    0.0000 H       1  UNL1        0.0274
     56 H          15.5273    1.0600    0.0000 H       1  UNL1        0.0274
     57 H          14.6804    1.2869    0.0000 H       1  UNL1        0.0274
     58 H          13.5044   -0.7500    0.0000 H       1  UNL1        0.0274
     59 H          14.1244   -1.3700    0.0000 H       1  UNL1        0.0274
     60 H          14.7444   -0.7500    0.0000 H       1  UNL1        0.0274
@<TRIPOS>BOND
     1     1     2    1
     2     1     3    1
     3     1    10    1
     4     1    21    1
     5     2     4    1
     6     2    22    1
     7     2    23    1
     8     3     6    1
     9     3    24    1
    10     3    25    1
    11     4     5    1
    12     4    26    1
    13     4    27    1
    14     5     7    1
    15     5    28    1
    16     5    29    1
    17     6     8    1
    18     6    30    1
    19     6    31    1
    20     7    11    1
    21     7    13    1
    22     7    32    1
    23     8     9    1
    24     8    33    1
    25     8    34    1
    26     9    12    1
    27     9    15    1
    28     9    35    1
    29    10    36    1
    30    10    37    1
    31    10    38    1
    32    11    14    1
    33    11    39    1
    34    11    40    1
    35    12    16    1
    36    12    41    1
    37    12    42    1
    38    13    43    1
    39    13    44    1
    40    13    45    1
    41    14    17    1
    42    14    46    1
    43    14    47    1
    44    15    48    1
    45    15    49    1
    46    15    50    1
    47    16    51    1
    48    16    52    1
    49    16    53    1
    50    17    18    2
    51    17    54    1
    52    18    19    1
    53    18    20    1
    54    19    55    1
    55    19    56    1
    56    19    57    1
    57    20    58    1
    58    20    59    1
    59    20    60    1
