@<TRIPOS>MOLECULE
IMPHY007519
 43 46 0 0 0
SMALL
GASTEIGER

@<TRIPOS>ATOM
      1 O           7.2762    2.7830    0.0000 O.3     1  UNL1       -0.4914
      2 O           2.8680    0.2379    0.0000 O.2     1  UNL1       -0.4911
      3 O           9.0501    1.7588    0.0000 O.3     1  UNL1       -0.5033
      4 O           4.6497    1.2483    0.0000 O.2     1  UNL1       -0.2833
      5 O           4.6497   -2.8209    0.0000 O.2     1  UNL1       -0.2871
      6 C           6.3981    0.2137    0.0000 C.ar    1  UNL1       -0.0020
      7 C           7.2641   -0.2863    0.0000 C.ar    1  UNL1       -0.0058
      8 C           5.5320   -0.2863    0.0000 C.ar    1  UNL1        0.0440
      9 C           7.2641   -1.2863    0.0000 C.ar    1  UNL1       -0.0093
     10 C           5.5320   -1.2863    0.0000 C.ar    1  UNL1        0.0339
     11 C           6.3981   -1.7863    0.0000 C.ar    1  UNL1       -0.0419
     12 C           6.3820    1.2552    0.0000 C.ar    1  UNL1       -0.0079
     13 C           8.1741    0.2206    0.0000 C.ar    1  UNL1       -0.0082
     14 C           8.1301   -1.7863    0.0000 C.ar    1  UNL1       -0.0173
     15 C           4.6381    0.2484    0.0000 C.2     1  UNL1        0.2287
     16 C           4.6381   -1.8210    0.0000 C.2     1  UNL1        0.1904
     17 C           7.2800    1.7830    0.0000 C.ar    1  UNL1        0.1619
     18 C           8.1821    1.2622    0.0000 C.ar    1  UNL1        0.1591
     19 C           3.7320   -0.2655    0.0000 C.2     1  UNL1        0.1708
     20 C           3.7320   -1.3071    0.0000 C.2     1  UNL1        0.0312
     21 C           8.1301   -2.7863    0.0000 C.ar    1  UNL1       -0.0540
     22 C           8.9962   -1.2863    0.0000 C.ar    1  UNL1       -0.0540
     23 C           8.9962   -3.2863    0.0000 C.ar    1  UNL1       -0.0612
     24 C           9.8622   -1.7863    0.0000 C.ar    1  UNL1       -0.0612
     25 C           9.8622   -2.7863    0.0000 C.ar    1  UNL1       -0.0617
     26 C           8.1403    3.2863    0.0000 C.3     1  UNL1        0.0790
     27 C           2.0000   -0.2588    0.0000 C.3     1  UNL1        0.0790
     28 H           6.3981   -2.4063    0.0000 H       1  UNL1        0.0631
     29 H           5.8415    1.5590    0.0000 H       1  UNL1        0.0662
     30 H           8.7074   -0.0956    0.0000 H       1  UNL1        0.0661
     31 H           3.1963   -1.6192    0.0000 H       1  UNL1        0.0694
     32 H           7.5932   -3.0963    0.0000 H       1  UNL1        0.0624
     33 H           8.9962   -0.6663    0.0000 H       1  UNL1        0.0624
     34 H           8.9962   -3.9063    0.0000 H       1  UNL1        0.0618
     35 H          10.3991   -1.4763    0.0000 H       1  UNL1        0.0618
     36 H          10.3991   -3.0963    0.0000 H       1  UNL1        0.0618
     37 H           9.5858    1.4467    0.0000 H       1  UNL1        0.2923
     38 H           8.4523    2.7506    0.0000 H       1  UNL1        0.0660
     39 H           8.6760    3.5984    0.0000 H       1  UNL1        0.0660
     40 H           7.8282    3.8220    0.0000 H       1  UNL1        0.0660
     41 H           1.6921    0.2793    0.0000 H       1  UNL1        0.0660
     42 H           1.4619   -0.5667    0.0000 H       1  UNL1        0.0660
     43 H           2.3079   -0.7969    0.0000 H       1  UNL1        0.0660
@<TRIPOS>BOND
     1     1    17    1
     2     1    26    1
     3     2    19    1
     4     2    27    1
     5     3    18    1
     6     3    37    1
     7     4    15    2
     8     5    16    2
     9     6     7   ar
    10     6     8   ar
    11     6    12   ar
    12     7     9   ar
    13     7    13   ar
    14     8    10   ar
    15     8    15    1
    16     9    11   ar
    17     9    14    1
    18    10    11   ar
    19    10    16    1
    20    11    28    1
    21    12    17   ar
    22    12    29    1
    23    13    18   ar
    24    13    30    1
    25    14    21   ar
    26    14    22   ar
    27    15    19    1
    28    16    20    1
    29    17    18   ar
    30    19    20    2
    31    20    31    1
    32    21    23   ar
    33    21    32    1
    34    22    24   ar
    35    22    33    1
    36    23    25   ar
    37    23    34    1
    38    24    25   ar
    39    24    35    1
    40    25    36    1
    41    26    38    1
    42    26    39    1
    43    26    40    1
    44    27    41    1
    45    27    42    1
    46    27    43    1
