@<TRIPOS>MOLECULE
IMPHY013197
 83 87 0 0 0
SMALL
GASTEIGER

@<TRIPOS>ATOM
      1 O           2.5357   -2.5933    0.0000 O.3     1  UNL1       -0.3912
      2 O          11.5367    0.5118    0.0000 O.3     1  UNL1       -0.3887
      3 O          11.5367    2.6034    0.0000 O.3     1  UNL1       -0.3887
      4 C           7.0628   -1.0410    0.0000 C.3     1  UNL1       -0.0194
      5 C           6.1968   -0.5410    0.0000 C.3     1  UNL1       -0.0257
      6 C           5.2868   -1.0478    0.0000 C.3     1  UNL1       -0.0250
      7 C           7.9288   -0.5410    0.0000 C.3     1  UNL1       -0.0051
      8 C           5.2787   -2.0894    0.0000 C.3     1  UNL1       -0.0278
      9 C           7.0789   -2.0825    0.0000 C.3     1  UNL1       -0.0463
     10 C           7.9288    0.4590    0.0000 C.2     1  UNL1       -0.0633
     11 C           8.8228    0.9937    0.0000 C.3     1  UNL1       -0.0110
     12 C           9.7288    0.4799    0.0000 C.3     1  UNL1        0.0029
     13 C           6.1808   -2.6102    0.0000 C.3     1  UNL1       -0.0486
     14 C           4.3433   -2.6391    0.0000 C.3     1  UNL1       -0.0056
     15 C           8.8228   -1.0756    0.0000 C.3     1  UNL1       -0.0428
     16 C           6.1968    0.4590    0.0000 C.3     1  UNL1       -0.0306
     17 C           4.3599   -0.4837    0.0000 C.3     1  UNL1       -0.0447
     18 C           9.7288   -0.5618    0.0000 C.3     1  UNL1       -0.0438
     19 C           7.7056   -1.8070    0.0000 C.3     1  UNL1       -0.0585
     20 C           7.0628    0.9590    0.0000 C.2     1  UNL1       -0.0836
     21 C           3.4037   -2.0966    0.0000 C.3     1  UNL1        0.0606
     22 C           5.2945   -0.0478    0.0000 C.3     1  UNL1       -0.0590
     23 C           8.7977    2.0784    0.0000 C.3     1  UNL1       -0.0383
     24 C           8.2709   -1.4806    0.0000 C.3     1  UNL1       -0.0553
     25 C           3.4120   -1.0117    0.0000 C.3     1  UNL1       -0.0258
     26 C          10.6726    1.0151    0.0000 C.3     1  UNL1        0.0874
     27 C           9.7288    2.6353    0.0000 C.3     1  UNL1       -0.0059
     28 C          10.6726    2.1001    0.0000 C.3     1  UNL1        0.0867
     29 C          10.5987   -0.0135    0.0000 C.3     1  UNL1       -0.0566
     30 C           3.8467   -3.5071    0.0000 C.3     1  UNL1       -0.0572
     31 C           4.8466   -3.5032    0.0000 C.3     1  UNL1       -0.0572
     32 C          10.2188    3.5071    0.0000 C.3     1  UNL1       -0.0574
     33 C           9.2188    3.4955    0.0000 C.3     1  UNL1       -0.0574
     34 H           6.9329   -0.1160    0.0000 H       1  UNL1        0.0315
     35 H           5.2820   -2.9394    0.0000 H       1  UNL1        0.0312
     36 H           7.2969   -2.6629    0.0000 H       1  UNL1        0.0271
     37 H           7.6880   -1.9670    0.0000 H       1  UNL1        0.0271
     38 H           9.5522    1.4300    0.0000 H       1  UNL1        0.0352
     39 H           5.7835   -3.0862    0.0000 H       1  UNL1        0.0268
     40 H           6.5818   -3.0831    0.0000 H       1  UNL1        0.0268
     41 H           8.4182   -1.5454    0.0000 H       1  UNL1        0.0274
     42 H           9.2164   -1.5546    0.0000 H       1  UNL1        0.0274
     43 H           5.9847    1.0416    0.0000 H       1  UNL1        0.0310
     44 H           5.5862    0.3514    0.0000 H       1  UNL1        0.0310
     45 H           4.7681   -0.0171    0.0000 H       1  UNL1        0.0271
     46 H           3.9700   -0.0017    0.0000 H       1  UNL1        0.0271
     47 H           9.9379   -1.1455    0.0000 H       1  UNL1        0.0272
     48 H          10.3397   -0.4557    0.0000 H       1  UNL1        0.0272
     49 H           7.2306   -2.2055    0.0000 H       1  UNL1        0.0235
     50 H           8.1041   -2.2820    0.0000 H       1  UNL1        0.0235
     51 H           8.1805   -1.4085    0.0000 H       1  UNL1        0.0235
     52 H           7.0628    1.5790    0.0000 H       1  UNL1        0.0572
     53 H           3.4025   -2.7166    0.0000 H       1  UNL1        0.0599
     54 H           5.9145   -0.0526    0.0000 H       1  UNL1        0.0235
     55 H           5.2993    0.5721    0.0000 H       1  UNL1        0.0235
     56 H           4.6745   -0.0431    0.0000 H       1  UNL1        0.0235
     57 H           8.5752    2.6571    0.0000 H       1  UNL1        0.0277
     58 H           8.1894    1.9582    0.0000 H       1  UNL1        0.0277
     59 H           7.6884   -1.6927    0.0000 H       1  UNL1        0.0238
     60 H           8.4830   -2.0632    0.0000 H       1  UNL1        0.0238
     61 H           8.8535   -1.2685    0.0000 H       1  UNL1        0.0238
     62 H           3.2075   -0.4264    0.0000 H       1  UNL1        0.0290
     63 H           2.8004   -1.1131    0.0000 H       1  UNL1        0.0290
     64 H          11.2101    1.3241    0.0000 H       1  UNL1        0.0625
     65 H          11.2101    1.7911    0.0000 H       1  UNL1        0.0624
     66 H          10.2928   -0.5528    0.0000 H       1  UNL1        0.0236
     67 H          11.1380   -0.3193    0.0000 H       1  UNL1        0.0236
     68 H          10.9045    0.5259    0.0000 H       1  UNL1        0.0236
     69 H           3.3085   -3.1992    0.0000 H       1  UNL1        0.0236
     70 H           3.5387   -4.0452    0.0000 H       1  UNL1        0.0236
     71 H           4.3848   -3.8150    0.0000 H       1  UNL1        0.0236
     72 H           4.3109   -3.8153    0.0000 H       1  UNL1        0.0236
     73 H           5.1587   -4.0390    0.0000 H       1  UNL1        0.0236
     74 H           5.3824   -3.1912    0.0000 H       1  UNL1        0.0236
     75 H          10.7593    3.2033    0.0000 H       1  UNL1        0.0236
     76 H          10.5226    4.0476    0.0000 H       1  UNL1        0.0236
     77 H           9.6783    3.8108    0.0000 H       1  UNL1        0.0236
     78 H           9.7522    3.8117    0.0000 H       1  UNL1        0.0236
     79 H           8.9027    4.0288    0.0000 H       1  UNL1        0.0236
     80 H           8.6855    3.1793    0.0000 H       1  UNL1        0.0236
     81 H           2.0000   -2.2812    0.0000 H       1  UNL1        0.2098
     82 H          12.0748    0.8197    0.0000 H       1  UNL1        0.2099
     83 H          11.5343    3.2234    0.0000 H       1  UNL1        0.2099
@<TRIPOS>BOND
     1    21     1    1
     2     1    81    1
     3    26     2    1
     4     2    82    1
     5    28     3    1
     6     3    83    1
     7     4     5    1
     8     4     7    1
     9     4     9    1
    10     4    19    1
    11     5     6    1
    12     5    16    1
    13     5    34    1
    14     6     8    1
    15     6    17    1
    16     6    22    1
    17     7    10    1
    18     7    15    1
    19     7    24    1
    20     8    13    1
    21     8    14    1
    22     8    35    1
    23     9    13    1
    24     9    36    1
    25     9    37    1
    26    10    11    1
    27    10    20    2
    28    11    12    1
    29    11    23    1
    30    11    38    1
    31    12    18    1
    32    12    26    1
    33    12    29    1
    34    13    39    1
    35    13    40    1
    36    14    21    1
    37    14    30    1
    38    14    31    1
    39    15    18    1
    40    15    41    1
    41    15    42    1
    42    16    20    1
    43    16    43    1
    44    16    44    1
    45    17    25    1
    46    17    45    1
    47    17    46    1
    48    18    47    1
    49    18    48    1
    50    19    49    1
    51    19    50    1
    52    19    51    1
    53    20    52    1
    54    21    25    1
    55    21    53    1
    56    22    54    1
    57    22    55    1
    58    22    56    1
    59    23    27    1
    60    23    57    1
    61    23    58    1
    62    24    59    1
    63    24    60    1
    64    24    61    1
    65    25    62    1
    66    25    63    1
    67    26    28    1
    68    26    64    1
    69    27    28    1
    70    27    32    1
    71    27    33    1
    72    28    65    1
    73    29    66    1
    74    29    67    1
    75    29    68    1
    76    30    69    1
    77    30    70    1
    78    30    71    1
    79    31    72    1
    80    31    73    1
    81    31    74    1
    82    32    75    1
    83    32    76    1
    84    32    77    1
    85    33    78    1
    86    33    79    1
    87    33    80    1
