@<TRIPOS>MOLECULE
IMPHY014239
 62 64 0 0 0
SMALL
GASTEIGER

@<TRIPOS>ATOM
      1 O           7.4260    0.5603    0.0000 O.3     1  UNL1       -0.4872
      2 O           3.9061    0.5603    0.0000 O.3     1  UNL1       -0.4811
      3 O           5.6660    3.5950    0.0000 O.3     1  UNL1       -0.5052
      4 O           7.4144    3.6296    0.0000 O.2     1  UNL1       -0.2914
      5 O           7.3981   -2.4050    0.0000 O.3     1  UNL1       -0.4806
      6 O           5.6660   -2.4050    0.0000 O.2     1  UNL1       -0.2510
      7 C           5.6660   -0.4050    0.0000 C.3     1  UNL1        0.0012
      8 C           5.6660    0.5950    0.0000 C.ar    1  UNL1        0.0410
      9 C           6.5320    1.0950    0.0000 C.ar    1  UNL1        0.1419
     10 C           4.8000   -0.9050    0.0000 C.3     1  UNL1       -0.0455
     11 C           8.3321    2.1158    0.0000 C.3     1  UNL1        0.0562
     12 C           4.8000    1.0950    0.0000 C.ar    1  UNL1        0.1393
     13 C           6.5320    2.0950    0.0000 C.ar    1  UNL1        0.1018
     14 C           8.3321    1.0742    0.0000 C.3     1  UNL1        0.1070
     15 C           4.8000    2.0950    0.0000 C.ar    1  UNL1        0.0591
     16 C           6.5320   -0.9050    0.0000 C.3     1  UNL1        0.0518
     17 C           4.8000   -1.9050    0.0000 C.3     1  UNL1       -0.0525
     18 C           7.4260    2.6297    0.0000 C.2     1  UNL1        0.1765
     19 C           3.0000    1.0742    0.0000 C.3     1  UNL1        0.1235
     20 C           5.6660    2.5950    0.0000 C.ar    1  UNL1        0.1415
     21 C           3.9340   -2.4050    0.0000 C.3     1  UNL1       -0.0533
     22 C           3.9061    2.6297    0.0000 C.2     1  UNL1       -0.0478
     23 C           9.1962    2.6192    0.0000 C.3     1  UNL1       -0.0519
     24 C           3.0000    2.1158    0.0000 C.2     1  UNL1       -0.0408
     25 C           9.1962    0.5708    0.0000 C.3     1  UNL1       -0.0271
     26 C           2.0000    1.0703    0.0000 C.3     1  UNL1       -0.0215
     27 C           2.5033    0.2062    0.0000 C.3     1  UNL1       -0.0215
     28 C           3.9340   -3.4050    0.0000 C.3     1  UNL1       -0.0559
     29 C           6.5320   -1.9050    0.0000 C.2     1  UNL1        0.3053
     30 C           3.0680   -3.9050    0.0000 C.3     1  UNL1       -0.0653
     31 H           5.1291   -0.0950    0.0000 H       1  UNL1        0.0356
     32 H           4.5880   -0.3224    0.0000 H       1  UNL1        0.0271
     33 H           4.1894   -1.0127    0.0000 H       1  UNL1        0.0271
     34 H           8.8696    1.8068    0.0000 H       1  UNL1        0.0414
     35 H           8.3285    0.4542    0.0000 H       1  UNL1        0.0737
     36 H           7.1426   -1.0127    0.0000 H       1  UNL1        0.0383
     37 H           6.7441   -0.3224    0.0000 H       1  UNL1        0.0383
     38 H           5.0120   -2.4876    0.0000 H       1  UNL1        0.0265
     39 H           5.4106   -1.7973    0.0000 H       1  UNL1        0.0265
     40 H           3.7219   -1.8224    0.0000 H       1  UNL1        0.0265
     41 H           3.3234   -2.5127    0.0000 H       1  UNL1        0.0265
     42 H           3.9132    3.2496    0.0000 H       1  UNL1        0.0624
     43 H           9.5082    2.0834    0.0000 H       1  UNL1        0.0238
     44 H           9.7319    2.9312    0.0000 H       1  UNL1        0.0238
     45 H           8.8841    3.1549    0.0000 H       1  UNL1        0.0238
     46 H           2.4643    2.4279    0.0000 H       1  UNL1        0.0611
     47 H           8.8841    0.0351    0.0000 H       1  UNL1        0.0265
     48 H           9.7319    0.2588    0.0000 H       1  UNL1        0.0265
     49 H           9.5082    1.1066    0.0000 H       1  UNL1        0.0265
     50 H           1.9976    1.6903    0.0000 H       1  UNL1        0.0271
     51 H           1.3800    1.0679    0.0000 H       1  UNL1        0.0271
     52 H           2.0024    0.4503    0.0000 H       1  UNL1        0.0271
     53 H           1.9652    0.5142    0.0000 H       1  UNL1        0.0271
     54 H           2.1954   -0.3319    0.0000 H       1  UNL1        0.0271
     55 H           3.0415   -0.1017    0.0000 H       1  UNL1        0.0271
     56 H           4.1460   -3.9876    0.0000 H       1  UNL1        0.0263
     57 H           4.5446   -3.2973    0.0000 H       1  UNL1        0.0263
     58 H           5.1291    3.9050    0.0000 H       1  UNL1        0.2922
     59 H           2.7580   -3.3681    0.0000 H       1  UNL1        0.0230
     60 H           2.5310   -4.2150    0.0000 H       1  UNL1        0.0230
     61 H           3.3780   -4.4419    0.0000 H       1  UNL1        0.0230
     62 H           7.3981   -3.0250    0.0000 H       1  UNL1        0.2951
@<TRIPOS>BOND
     1     1     9    1
     2     1    14    1
     3     2    12    1
     4     2    19    1
     5     3    20    1
     6     3    58    1
     7     4    18    2
     8     5    29    1
     9     5    62    1
    10     6    29    2
    11     7     8    1
    12     7    10    1
    13     7    16    1
    14     7    31    1
    15     8     9   ar
    16     8    12   ar
    17     9    13   ar
    18    10    17    1
    19    10    32    1
    20    10    33    1
    21    11    14    1
    22    11    18    1
    23    11    23    1
    24    11    34    1
    25    12    15   ar
    26    13    18    1
    27    13    20   ar
    28    14    25    1
    29    14    35    1
    30    15    20   ar
    31    15    22    1
    32    16    29    1
    33    16    36    1
    34    16    37    1
    35    17    21    1
    36    17    38    1
    37    17    39    1
    38    19    24    1
    39    19    26    1
    40    19    27    1
    41    21    28    1
    42    21    40    1
    43    21    41    1
    44    22    24    2
    45    22    42    1
    46    23    43    1
    47    23    44    1
    48    23    45    1
    49    24    46    1
    50    25    47    1
    51    25    48    1
    52    25    49    1
    53    26    50    1
    54    26    51    1
    55    26    52    1
    56    27    53    1
    57    27    54    1
    58    27    55    1
    59    28    30    1
    60    28    56    1
    61    28    57    1
    62    30    59    1
    63    30    60    1
    64    30    61    1
