@<TRIPOS>MOLECULE
IMPHY005894
 71 73 0 0 0
SMALL
GASTEIGER

@<TRIPOS>ATOM
      1 O           6.0682    0.5746    0.0000 O.2     1  UNL1       -0.4504
      2 O           2.5381    0.5505    0.0000 O.3     1  UNL1       -0.5062
      3 O           4.3198    3.6092    0.0000 O.3     1  UNL1       -0.5058
      4 O           7.8003    2.5746    0.0000 O.3     1  UNL1       -0.5007
      5 O           6.0682    3.5746    0.0000 O.2     1  UNL1       -0.2830
      6 O          10.3984   -0.9254    0.0000 O.3     1  UNL1       -0.5031
      7 O          10.3984    1.0746    0.0000 O.3     1  UNL1       -0.5033
      8 C           4.3198   -0.4600    0.0000 C.3     1  UNL1        0.0148
      9 C           4.3083    0.5399    0.0000 C.ar    1  UNL1        0.0465
     10 C           5.2022    1.0746    0.0000 C.ar    1  UNL1        0.1505
     11 C           3.3199   -0.4715    0.0000 C.3     1  UNL1       -0.0521
     12 C           5.3198   -0.4484    0.0000 C.3     1  UNL1       -0.0521
     13 C           5.2022    2.0746    0.0000 C.ar    1  UNL1        0.1095
     14 C           3.4022    1.0538    0.0000 C.ar    1  UNL1        0.1278
     15 C           7.8003    0.5746    0.0000 C.ar    1  UNL1        0.0285
     16 C           6.9343    1.0746    0.0000 C.ar    1  UNL1        0.1810
     17 C           7.8003   -0.4254    0.0000 C.ar    1  UNL1       -0.0257
     18 C           4.3314   -1.4599    0.0000 C.2     1  UNL1       -0.0809
     19 C           8.6663   -0.9254    0.0000 C.ar    1  UNL1        0.0056
     20 C           4.3083    2.6093    0.0000 C.ar    1  UNL1        0.1348
     21 C           6.0682    2.5746    0.0000 C.ar    1  UNL1        0.2379
     22 C           3.4022    2.0954    0.0000 C.ar    1  UNL1        0.0226
     23 C           6.9343    2.0746    0.0000 C.ar    1  UNL1        0.2082
     24 C           6.9343   -0.9254    0.0000 C.3     1  UNL1       -0.0082
     25 C           8.6663    1.0746    0.0000 C.ar    1  UNL1       -0.0055
     26 C           8.6663   -1.9254    0.0000 C.3     1  UNL1       -0.0054
     27 C           9.5323   -0.4254    0.0000 C.ar    1  UNL1        0.1621
     28 C           9.5323    0.5746    0.0000 C.ar    1  UNL1        0.1592
     29 C           3.4712   -1.9699    0.0000 C.2     1  UNL1       -0.1018
     30 C           6.9343   -1.9254    0.0000 C.2     1  UNL1       -0.0810
     31 C           9.5323   -2.4254    0.0000 C.2     1  UNL1       -0.0809
     32 C           6.0682   -2.4254    0.0000 C.2     1  UNL1       -0.0793
     33 C           9.5323   -3.4254    0.0000 C.2     1  UNL1       -0.0793
     34 C           6.0682   -3.4254    0.0000 C.3     1  UNL1       -0.0440
     35 C           5.2022   -1.9254    0.0000 C.3     1  UNL1       -0.0440
     36 C          10.3984   -3.9254    0.0000 C.3     1  UNL1       -0.0440
     37 C           8.6663   -3.9254    0.0000 C.3     1  UNL1       -0.0440
     38 H           5.3270   -1.0684    0.0000 H       1  UNL1        0.0241
     39 H           5.9397   -0.4413    0.0000 H       1  UNL1        0.0241
     40 H           5.3126    0.1715    0.0000 H       1  UNL1        0.0241
     41 H           3.3128    0.1484    0.0000 H       1  UNL1        0.0241
     42 H           2.7000   -0.4787    0.0000 H       1  UNL1        0.0241
     43 H           3.3271   -1.0915    0.0000 H       1  UNL1        0.0241
     44 H           4.8719   -1.7637    0.0000 H       1  UNL1        0.0575
     45 H           2.8665    2.4075    0.0000 H       1  UNL1        0.0691
     46 H           6.7222   -0.3428    0.0000 H       1  UNL1        0.0356
     47 H           6.3237   -1.0330    0.0000 H       1  UNL1        0.0356
     48 H           8.6663    1.6946    0.0000 H       1  UNL1        0.0662
     49 H           8.0558   -1.8177    0.0000 H       1  UNL1        0.0357
     50 H           8.4543   -2.5080    0.0000 H       1  UNL1        0.0357
     51 H           2.9307   -1.6661    0.0000 H       1  UNL1        0.0532
     52 H           3.4784   -2.5899    0.0000 H       1  UNL1        0.0532
     53 H           7.4712   -2.2354    0.0000 H       1  UNL1        0.0575
     54 H           2.0000    0.8584    0.0000 H       1  UNL1        0.2921
     55 H          10.0693   -2.1154    0.0000 H       1  UNL1        0.0575
     56 H           3.7865    3.9254    0.0000 H       1  UNL1        0.2922
     57 H           7.8003    3.1946    0.0000 H       1  UNL1        0.2924
     58 H          10.9353   -0.6154    0.0000 H       1  UNL1        0.2923
     59 H          10.3984    1.6946    0.0000 H       1  UNL1        0.2923
     60 H           5.4482   -3.4254    0.0000 H       1  UNL1        0.0274
     61 H           5.5122   -1.3885    0.0000 H       1  UNL1        0.0274
     62 H           4.6653   -1.6154    0.0000 H       1  UNL1        0.0274
     63 H           4.8922   -2.4623    0.0000 H       1  UNL1        0.0274
     64 H           6.0682   -4.0454    0.0000 H       1  UNL1        0.0274
     65 H           6.6882   -3.4254    0.0000 H       1  UNL1        0.0274
     66 H           8.3563   -3.3885    0.0000 H       1  UNL1        0.0274
     67 H           8.1294   -4.2354    0.0000 H       1  UNL1        0.0274
     68 H           8.9763   -4.4623    0.0000 H       1  UNL1        0.0274
     69 H          10.0884   -4.4623    0.0000 H       1  UNL1        0.0274
     70 H          10.9353   -4.2354    0.0000 H       1  UNL1        0.0274
     71 H          10.7084   -3.3885    0.0000 H       1  UNL1        0.0274
@<TRIPOS>BOND
     1     1    10   ar
     2     1    16   ar
     3     2    14    1
     4     2    54    1
     5     3    20    1
     6     3    56    1
     7     4    23    1
     8     4    57    1
     9     5    21    2
    10     6    27    1
    11     6    58    1
    12     7    28    1
    13     7    59    1
    14     8     9    1
    15     8    11    1
    16     8    12    1
    17     8    18    1
    18     9    10   ar
    19     9    14   ar
    20    10    13   ar
    21    11    41    1
    22    11    42    1
    23    11    43    1
    24    12    38    1
    25    12    39    1
    26    12    40    1
    27    13    20   ar
    28    13    21   ar
    29    14    22   ar
    30    15    16    1
    31    15    17   ar
    32    15    25   ar
    33    16    23   ar
    34    17    19   ar
    35    17    24    1
    36    18    29    2
    37    18    44    1
    38    19    26    1
    39    19    27   ar
    40    20    22   ar
    41    21    23   ar
    42    22    45    1
    43    24    30    1
    44    24    46    1
    45    24    47    1
    46    25    28   ar
    47    25    48    1
    48    26    31    1
    49    26    49    1
    50    26    50    1
    51    27    28   ar
    52    29    51    1
    53    29    52    1
    54    30    32    2
    55    30    53    1
    56    31    33    2
    57    31    55    1
    58    32    34    1
    59    32    35    1
    60    33    36    1
    61    33    37    1
    62    34    60    1
    63    34    64    1
    64    34    65    1
    65    35    61    1
    66    35    62    1
    67    35    63    1
    68    36    69    1
    69    36    70    1
    70    36    71    1
    71    37    66    1
    72    37    67    1
    73    37    68    1
