@<TRIPOS>MOLECULE
IMPHY001069
 44 46 0 0 0
SMALL
GASTEIGER

@<TRIPOS>ATOM
      1 O           5.1482    2.1688    0.0000 O.3     1  UNL1       -0.4607
      2 O           5.7812   -1.0396    0.0000 O.3     1  UNL1       -0.4601
      3 O           4.6840   -2.5270    0.0000 O.2     1  UNL1       -0.2920
      4 O           6.8881    2.5270    0.0000 O.2     1  UNL1       -0.2505
      5 O           7.4789   -0.6964    0.0000 O.2     1  UNL1       -0.2512
      6 C           4.0984   -0.8500    0.0000 C.3     1  UNL1        0.0738
      7 C           5.2219    0.5588    0.0000 C.3     1  UNL1        0.0468
      8 C           3.1974   -0.4161    0.0000 C.3     1  UNL1       -0.0040
      9 C           4.9994   -0.4161    0.0000 C.3     1  UNL1        0.1228
     10 C           4.5984    1.3406    0.0000 C.3     1  UNL1        0.1103
     11 C           2.9749    0.5588    0.0000 C.3     1  UNL1       -0.0332
     12 C           3.5984    1.3406    0.0000 C.3     1  UNL1       -0.0121
     13 C           6.1517    0.9105    0.0000 C.3     1  UNL1        0.0632
     14 C           3.9624   -1.8347    0.0000 C.2     1  UNL1        0.1657
     15 C           4.9994   -1.2839    0.0000 C.3     1  UNL1       -0.0485
     16 C           2.5124   -1.1364    0.0000 C.2     1  UNL1       -0.0763
     17 C           6.1062    1.9036    0.0000 C.2     1  UNL1        0.3107
     18 C           2.0000    0.7813    0.0000 C.3     1  UNL1       -0.0617
     19 C           2.9842   -2.0114    0.0000 C.2     1  UNL1       -0.0221
     20 C           7.1449    1.0267    0.0000 C.3     1  UNL1       -0.0518
     21 C           6.7292   -1.3581    0.0000 C.2     1  UNL1        0.3042
     22 C           6.9273   -2.3383    0.0000 C.3     1  UNL1        0.0332
     23 H           5.8627    0.0004    0.0000 H       1  UNL1        0.0381
     24 H           2.3778   -0.1911    0.0000 H       1  UNL1        0.0356
     25 H           4.9300   -1.0322    0.0000 H       1  UNL1        0.0748
     26 H           4.1966    2.0897    0.0000 H       1  UNL1        0.0738
     27 H           2.7702    1.1440    0.0000 H       1  UNL1        0.0305
     28 H           3.7364    1.9451    0.0000 H       1  UNL1        0.0304
     29 H           3.0398    1.6096    0.0000 H       1  UNL1        0.0304
     30 H           6.2985    0.3081    0.0000 H       1  UNL1        0.0416
     31 H           4.7304   -1.8425    0.0000 H       1  UNL1        0.0241
     32 H           5.5580   -1.5529    0.0000 H       1  UNL1        0.0241
     33 H           5.2684   -0.7253    0.0000 H       1  UNL1        0.0241
     34 H           1.8978   -1.0542    0.0000 H       1  UNL1        0.0576
     35 H           2.1380    1.3858    0.0000 H       1  UNL1        0.0233
     36 H           1.3955    0.9193    0.0000 H       1  UNL1        0.0233
     37 H           1.8620    0.1769    0.0000 H       1  UNL1        0.0233
     38 H           2.7152   -2.5700    0.0000 H       1  UNL1        0.0649
     39 H           7.2169    0.4109    0.0000 H       1  UNL1        0.0238
     40 H           7.7607    1.0987    0.0000 H       1  UNL1        0.0238
     41 H           7.0729    1.6425    0.0000 H       1  UNL1        0.0238
     42 H           6.3196   -2.4611    0.0000 H       1  UNL1        0.0342
     43 H           7.0501   -2.9460    0.0000 H       1  UNL1        0.0342
     44 H           7.5350   -2.2154    0.0000 H       1  UNL1        0.0342
@<TRIPOS>BOND
     1     1    10    1
     2     1    17    1
     3     9     2    1
     4     2    21    1
     5     3    14    2
     6     4    17    2
     7     5    21    2
     8     6     8    1
     9     6     9    1
    10     6    14    1
    11     6    15    1
    12     7     9    1
    13     7    10    1
    14     7    13    1
    15     7    23    1
    16     8    11    1
    17     8    16    1
    18     8    24    1
    19     9    25    1
    20    10    12    1
    21    10    26    1
    22    11    12    1
    23    11    18    1
    24    11    27    1
    25    12    28    1
    26    12    29    1
    27    13    17    1
    28    13    20    1
    29    13    30    1
    30    14    19    1
    31    15    31    1
    32    15    32    1
    33    15    33    1
    34    16    19    2
    35    16    34    1
    36    18    35    1
    37    18    36    1
    38    18    37    1
    39    19    38    1
    40    20    39    1
    41    20    40    1
    42    20    41    1
    43    21    22    1
    44    22    42    1
    45    22    43    1
    46    22    44    1
