@<TRIPOS>MOLECULE
IMPHY004938
 30 32 0 0 0
SMALL
GASTEIGER

@<TRIPOS>ATOM
      1 O           6.0682   -0.9031    0.0000 O.2     1  UNL1       -0.4506
      2 O           7.8167   -1.9377    0.0000 O.3     1  UNL1       -0.4914
      3 O           6.0682    2.0969    0.0000 O.2     1  UNL1       -0.2861
      4 O           7.8167    2.1315    0.0000 O.3     1  UNL1       -0.5059
      5 O           4.3198    2.1315    0.0000 O.3     1  UNL1       -0.5058
      6 O           2.5381   -0.9273    0.0000 O.3     1  UNL1       -0.5065
      7 C           6.9343    0.5969    0.0000 C.ar    1  UNL1        0.1096
      8 C           5.2022    0.5969    0.0000 C.ar    1  UNL1        0.1062
      9 C           6.9343   -0.4031    0.0000 C.ar    1  UNL1        0.1841
     10 C           5.2022   -0.4031    0.0000 C.ar    1  UNL1        0.1464
     11 C           6.0682    1.0969    0.0000 C.ar    1  UNL1        0.2074
     12 C           7.8282   -0.9378    0.0000 C.ar    1  UNL1        0.1631
     13 C           7.8282    1.1316    0.0000 C.ar    1  UNL1        0.1315
     14 C           4.3083    1.1316    0.0000 C.ar    1  UNL1        0.1347
     15 C           4.3083   -0.9378    0.0000 C.ar    1  UNL1        0.0231
     16 C           8.7343   -0.4239    0.0000 C.ar    1  UNL1       -0.0128
     17 C           8.7343    0.6177    0.0000 C.ar    1  UNL1       -0.0158
     18 C           3.4022    0.6177    0.0000 C.ar    1  UNL1        0.0223
     19 C           3.4022   -0.4239    0.0000 C.ar    1  UNL1        0.1239
     20 C           8.6768   -2.4477    0.0000 C.3     1  UNL1        0.0790
     21 H           4.3154   -1.5577    0.0000 H       1  UNL1        0.0691
     22 H           9.2700   -0.7360    0.0000 H       1  UNL1        0.0656
     23 H           9.2700    0.9298    0.0000 H       1  UNL1        0.0655
     24 H           2.8665    0.9298    0.0000 H       1  UNL1        0.0691
     25 H           8.3500    2.4477    0.0000 H       1  UNL1        0.2922
     26 H           3.7865    2.4477    0.0000 H       1  UNL1        0.2922
     27 H           8.3606   -2.9810    0.0000 H       1  UNL1        0.0660
     28 H           9.2102   -2.7639    0.0000 H       1  UNL1        0.0660
     29 H           8.9930   -1.9144    0.0000 H       1  UNL1        0.0660
     30 H           2.0000   -0.6193    0.0000 H       1  UNL1        0.2921
@<TRIPOS>BOND
     1     1     9   ar
     2     1    10   ar
     3     2    12    1
     4     2    20    1
     5     3    11    2
     6     4    13    1
     7     4    25    1
     8     5    14    1
     9     5    26    1
    10     6    19    1
    11     6    30    1
    12     7     9   ar
    13     7    11   ar
    14     7    13   ar
    15     8    10   ar
    16     8    11   ar
    17     8    14   ar
    18     9    12   ar
    19    10    15   ar
    20    12    16   ar
    21    13    17   ar
    22    14    18   ar
    23    15    19   ar
    24    15    21    1
    25    16    17   ar
    26    16    22    1
    27    17    23    1
    28    18    19   ar
    29    18    24    1
    30    20    27    1
    31    20    28    1
    32    20    29    1
