@<TRIPOS>MOLECULE
IMPHY014481
 38 39 0 0 0
SMALL
GASTEIGER

@<TRIPOS>ATOM
      1 S           4.7320    2.6550    0.0000 S.O2    1  UNL1        0.0758
      2 S           3.0000   -3.3450    0.0000 S.O2    1  UNL1        0.0731
      3 O           4.2320    3.5210    0.0000 O.2     1  UNL1       -0.1499
      4 O           5.2320    1.7890    0.0000 O.2     1  UNL1       -0.1499
      5 O           4.7320    0.6550    0.0000 O.2     1  UNL1       -0.2509
      6 O           2.0000   -3.3450    0.0000 O.2     1  UNL1       -0.1518
      7 O           4.0000   -3.3450    0.0000 O.2     1  UNL1       -0.1518
      8 N           3.8660    2.1550    0.0000 N.am    1  UNL1       -0.1690
      9 N           3.0000    0.6550    0.0000 N.am    1  UNL1       -0.2669
     10 N           3.8660   -1.8450    0.0000 N.ar    1  UNL1       -0.2338
     11 N           3.0000   -4.3450    0.0000 N.3     1  UNL1       -0.2021
     12 C           5.5981    3.1550    0.0000 C.ar    1  UNL1        0.1115
     13 C           6.4641    2.6550    0.0000 C.ar    1  UNL1       -0.0238
     14 C           5.5981    4.1550    0.0000 C.ar    1  UNL1       -0.0348
     15 C           7.3301    3.1550    0.0000 C.ar    1  UNL1       -0.0570
     16 C           6.4641    1.6550    0.0000 C.3     1  UNL1       -0.0378
     17 C           6.4641    4.6550    0.0000 C.ar    1  UNL1       -0.0599
     18 C           3.0000   -0.3450    0.0000 C.ar    1  UNL1        0.0531
     19 C           7.3301    4.1550    0.0000 C.ar    1  UNL1       -0.0614
     20 C           3.8660    1.1550    0.0000 C.2     1  UNL1        0.3231
     21 C           3.0000   -2.3450    0.0000 C.ar    1  UNL1        0.1934
     22 C           2.1340   -0.8450    0.0000 C.ar    1  UNL1       -0.0356
     23 C           2.1340   -1.8450    0.0000 C.ar    1  UNL1       -0.0148
     24 C           3.8660   -0.8450    0.0000 C.ar    1  UNL1        0.0510
     25 H           5.0611    4.4650    0.0000 H       1  UNL1        0.0637
     26 H           3.3291    2.4650    0.0000 H       1  UNL1        0.1781
     27 H           7.8671    2.8450    0.0000 H       1  UNL1        0.0621
     28 H           5.8441    1.6550    0.0000 H       1  UNL1        0.0278
     29 H           6.4641    1.0350    0.0000 H       1  UNL1        0.0278
     30 H           7.0841    1.6550    0.0000 H       1  UNL1        0.0278
     31 H           6.4641    5.2750    0.0000 H       1  UNL1        0.0618
     32 H           7.8671    4.4650    0.0000 H       1  UNL1        0.0618
     33 H           2.4631    0.9650    0.0000 H       1  UNL1        0.1565
     34 H           1.5970   -0.5350    0.0000 H       1  UNL1        0.0638
     35 H           1.5970   -2.1550    0.0000 H       1  UNL1        0.0653
     36 H           4.4030   -0.5350    0.0000 H       1  UNL1        0.0849
     37 H           2.4631   -4.6550    0.0000 H       1  UNL1        0.1443
     38 H           3.5369   -4.6550    0.0000 H       1  UNL1        0.1443
@<TRIPOS>BOND
     1     1     3    2
     2     1     4    2
     3     1     8    1
     4     1    12    1
     5     2     6    2
     6     2     7    2
     7     2    11    1
     8     2    21    1
     9     5    20    2
    10     8    20   am
    11     8    26    1
    12     9    18    1
    13     9    20   am
    14     9    33    1
    15    10    21   ar
    16    10    24   ar
    17    11    37    1
    18    11    38    1
    19    12    13   ar
    20    12    14   ar
    21    13    15   ar
    22    13    16    1
    23    14    17   ar
    24    14    25    1
    25    15    19   ar
    26    15    27    1
    27    16    28    1
    28    16    29    1
    29    16    30    1
    30    17    19   ar
    31    17    31    1
    32    18    22   ar
    33    18    24   ar
    34    19    32    1
    35    21    23   ar
    36    22    23   ar
    37    22    34    1
    38    23    35    1
    39    24    36    1
