@<TRIPOS>MOLECULE
IMPHY016931
 16 15 0 0 0
SMALL
GASTEIGER

@<TRIPOS>ATOM
      1 S           6.3301    0.0000    0.0000 S.3     1  UNL1       -0.1641
      2 N           2.0000   -0.5000    0.0000 N.1     1  UNL1       -0.1966
      3 C           4.5981    0.0000    0.0000 C.3     1  UNL1       -0.0312
      4 C           5.4641    0.5000    0.0000 C.3     1  UNL1       -0.0057
      5 C           3.7320    0.5000    0.0000 C.3     1  UNL1        0.0355
      6 C           7.1962    0.5000    0.0000 C.3     1  UNL1       -0.0181
      7 C           2.8660   -0.0000    0.0000 C.1     1  UNL1        0.0625
      8 H           4.1996   -0.4749    0.0000 H       1  UNL1        0.0283
      9 H           4.9966   -0.4749    0.0000 H       1  UNL1        0.0283
     10 H           5.8626    0.9749    0.0000 H       1  UNL1        0.0376
     11 H           5.0656    0.9749    0.0000 H       1  UNL1        0.0376
     12 H           4.1306    0.9749    0.0000 H       1  UNL1        0.0418
     13 H           3.3335    0.9749    0.0000 H       1  UNL1        0.0418
     14 H           7.5062   -0.0369    0.0000 H       1  UNL1        0.0340
     15 H           7.7331    0.8100    0.0000 H       1  UNL1        0.0340
     16 H           6.8862    1.0369    0.0000 H       1  UNL1        0.0340
@<TRIPOS>BOND
     1     1     4    1
     2     1     6    1
     3     2     7    3
     4     3     4    1
     5     3     5    1
     6     3     8    1
     7     3     9    1
     8     4    10    1
     9     4    11    1
    10     5     7    1
    11     5    12    1
    12     5    13    1
    13     6    14    1
    14     6    15    1
    15     6    16    1
