@<TRIPOS>MOLECULE
IMPHY009251
 37 40 0 0 0
SMALL
GASTEIGER

@<TRIPOS>ATOM
      1 O           3.9061   -1.4953    0.0000 O.3     1  UNL1       -0.4814
      2 O           7.4260   -1.4953    0.0000 O.2     1  UNL1       -0.4543
      3 O           5.6660    1.5394    0.0000 O.3     1  UNL1       -0.5052
      4 O           7.4144    1.5740    0.0000 O.2     1  UNL1       -0.2863
      5 O          11.0711    0.5852    0.0000 O.3     1  UNL1       -0.5067
      6 C           3.0000   -0.9814    0.0000 C.3     1  UNL1        0.1235
      7 C           4.8000    0.0394    0.0000 C.ar    1  UNL1        0.0588
      8 C           4.8000   -0.9606    0.0000 C.ar    1  UNL1        0.1359
      9 C           3.0000    0.0602    0.0000 C.2     1  UNL1       -0.0408
     10 C           6.5320    0.0394    0.0000 C.ar    1  UNL1        0.1067
     11 C           5.6660    0.5394    0.0000 C.ar    1  UNL1        0.1418
     12 C           6.5320   -0.9606    0.0000 C.ar    1  UNL1        0.1463
     13 C           3.9061    0.5740    0.0000 C.2     1  UNL1       -0.0478
     14 C           2.0000   -0.9853    0.0000 C.3     1  UNL1       -0.0215
     15 C           2.5033   -1.8494    0.0000 C.3     1  UNL1       -0.0215
     16 C           5.6660   -1.4606    0.0000 C.ar    1  UNL1        0.0240
     17 C           7.4260    0.5740    0.0000 C.ar    1  UNL1        0.2038
     18 C           8.3321    0.0602    0.0000 C.ar    1  UNL1        0.0681
     19 C           8.3321   -0.9814    0.0000 C.ar    1  UNL1        0.1395
     20 C           9.2632    0.6171    0.0000 C.ar    1  UNL1       -0.0058
     21 C           9.2632   -1.5384    0.0000 C.ar    1  UNL1       -0.0152
     22 C          10.2070    0.0819    0.0000 C.ar    1  UNL1        0.1178
     23 C          10.2070   -1.0031    0.0000 C.ar    1  UNL1       -0.0167
     24 H           2.4643    0.3723    0.0000 H       1  UNL1        0.0611
     25 H           3.9132    1.1940    0.0000 H       1  UNL1        0.0624
     26 H           1.9976   -0.3653    0.0000 H       1  UNL1        0.0271
     27 H           1.3800   -0.9877    0.0000 H       1  UNL1        0.0271
     28 H           1.9652   -1.5414    0.0000 H       1  UNL1        0.0271
     29 H           2.1954   -2.3875    0.0000 H       1  UNL1        0.0271
     30 H           3.0415   -2.1573    0.0000 H       1  UNL1        0.0271
     31 H           2.0024   -1.6053    0.0000 H       1  UNL1        0.0271
     32 H           5.6660   -2.0806    0.0000 H       1  UNL1        0.0691
     33 H           9.2560    1.2371    0.0000 H       1  UNL1        0.0662
     34 H           9.2560   -2.1583    0.0000 H       1  UNL1        0.0656
     35 H           5.1291    1.8494    0.0000 H       1  UNL1        0.2922
     36 H          10.7427   -1.3152    0.0000 H       1  UNL1        0.0655
     37 H          11.6092    0.2773    0.0000 H       1  UNL1        0.2921
@<TRIPOS>BOND
     1     1     6    1
     2     1     8    1
     3     2    12   ar
     4     2    19   ar
     5     3    11    1
     6     3    35    1
     7     4    17    2
     8     5    22    1
     9     5    37    1
    10     6     9    1
    11     6    14    1
    12     6    15    1
    13     7     8   ar
    14     7    11   ar
    15     7    13    1
    16     8    16   ar
    17     9    13    2
    18     9    24    1
    19    10    11   ar
    20    10    12   ar
    21    10    17   ar
    22    12    16   ar
    23    13    25    1
    24    14    26    1
    25    14    27    1
    26    14    31    1
    27    15    28    1
    28    15    29    1
    29    15    30    1
    30    16    32    1
    31    17    18   ar
    32    18    19   ar
    33    18    20   ar
    34    19    21   ar
    35    20    22   ar
    36    20    33    1
    37    21    23   ar
    38    21    34    1
    39    22    23   ar
    40    23    36    1
