@<TRIPOS>MOLECULE
IMPHY016588
 33 33 0 0 0
SMALL
GASTEIGER

@<TRIPOS>ATOM
      1 C           2.8660   -1.0000    0.0000 C.3     1  UNL1       -0.0410
      2 C           2.0000   -1.5000    0.0000 C.3     1  UNL1       -0.0502
      3 C           3.7320   -1.5000    0.0000 C.3     1  UNL1       -0.0502
      4 C           2.8660    0.0000    0.0000 C.3     1  UNL1       -0.0502
      5 C           2.0000   -2.5000    0.0000 C.3     1  UNL1       -0.0528
      6 C           3.7320   -2.5000    0.0000 C.3     1  UNL1       -0.0528
      7 C           2.8660   -3.0000    0.0000 C.3     1  UNL1       -0.0530
      8 C           3.7320    0.5000    0.0000 C.3     1  UNL1       -0.0528
      9 C           3.7320    1.5000    0.0000 C.3     1  UNL1       -0.0533
     10 C           4.5981    2.0000    0.0000 C.3     1  UNL1       -0.0559
     11 C           4.5981    3.0000    0.0000 C.3     1  UNL1       -0.0653
     12 H           3.4030   -0.6900    0.0000 H       1  UNL1        0.0301
     13 H           1.7880   -0.9174    0.0000 H       1  UNL1        0.0268
     14 H           1.3894   -1.6077    0.0000 H       1  UNL1        0.0268
     15 H           4.3426   -1.6077    0.0000 H       1  UNL1        0.0268
     16 H           3.9441   -0.9174    0.0000 H       1  UNL1        0.0268
     17 H           2.6540    0.5826    0.0000 H       1  UNL1        0.0268
     18 H           2.2554   -0.1077    0.0000 H       1  UNL1        0.0268
     19 H           1.3894   -2.3923    0.0000 H       1  UNL1        0.0265
     20 H           1.7880   -3.0826    0.0000 H       1  UNL1        0.0265
     21 H           3.9441   -3.0826    0.0000 H       1  UNL1        0.0265
     22 H           4.3426   -2.3923    0.0000 H       1  UNL1        0.0265
     23 H           2.4675   -3.4750    0.0000 H       1  UNL1        0.0265
     24 H           3.2646   -3.4750    0.0000 H       1  UNL1        0.0265
     25 H           3.9441   -0.0826    0.0000 H       1  UNL1        0.0265
     26 H           4.3426    0.6077    0.0000 H       1  UNL1        0.0265
     27 H           3.5200    2.0826    0.0000 H       1  UNL1        0.0265
     28 H           3.1215    1.3923    0.0000 H       1  UNL1        0.0265
     29 H           4.8101    1.4174    0.0000 H       1  UNL1        0.0263
     30 H           5.2087    2.1077    0.0000 H       1  UNL1        0.0263
     31 H           5.2181    3.0000    0.0000 H       1  UNL1        0.0230
     32 H           4.5981    3.6200    0.0000 H       1  UNL1        0.0230
     33 H           3.9781    3.0000    0.0000 H       1  UNL1        0.0230
@<TRIPOS>BOND
     1     1     2    1
     2     1     3    1
     3     1     4    1
     4     1    12    1
     5     2     5    1
     6     2    13    1
     7     2    14    1
     8     3     6    1
     9     3    15    1
    10     3    16    1
    11     4     8    1
    12     4    17    1
    13     4    18    1
    14     5     7    1
    15     5    19    1
    16     5    20    1
    17     6     7    1
    18     6    21    1
    19     6    22    1
    20     7    23    1
    21     7    24    1
    22     8     9    1
    23     8    25    1
    24     8    26    1
    25     9    10    1
    26     9    27    1
    27     9    28    1
    28    10    11    1
    29    10    29    1
    30    10    30    1
    31    11    31    1
    32    11    32    1
    33    11    33    1
