@<TRIPOS>MOLECULE
IMPHY017768
 26 25 0 0 0
SMALL
GASTEIGER

@<TRIPOS>ATOM
      1 O           3.7320   -0.5600    0.0000 O.3     1  UNL1       -0.4668
      2 O           2.0000   -0.5600    0.0000 O.2     1  UNL1       -0.2546
      3 C           7.1962   -0.5600    0.0000 C.3     1  UNL1       -0.0530
      4 C           6.3301   -0.0600    0.0000 C.3     1  UNL1       -0.0500
      5 C           8.0622   -0.0600    0.0000 C.3     1  UNL1       -0.0533
      6 C           5.4641   -0.5600    0.0000 C.3     1  UNL1       -0.0185
      7 C           8.9282   -0.5600    0.0000 C.3     1  UNL1       -0.0559
      8 C           4.5981   -0.0600    0.0000 C.3     1  UNL1        0.0922
      9 C           9.7942   -0.0600    0.0000 C.3     1  UNL1       -0.0653
     10 C           2.8660   -0.0600    0.0000 C.2     1  UNL1        0.2943
     11 H           6.7976   -1.0350    0.0000 H       1  UNL1        0.0265
     12 H           7.5947   -1.0350    0.0000 H       1  UNL1        0.0265
     13 H           6.7287    0.4149    0.0000 H       1  UNL1        0.0266
     14 H           5.9316    0.4149    0.0000 H       1  UNL1        0.0266
     15 H           8.4607    0.4149    0.0000 H       1  UNL1        0.0265
     16 H           7.6636    0.4149    0.0000 H       1  UNL1        0.0265
     17 H           5.0656   -1.0350    0.0000 H       1  UNL1        0.0298
     18 H           5.8626   -1.0350    0.0000 H       1  UNL1        0.0298
     19 H           8.5297   -1.0350    0.0000 H       1  UNL1        0.0263
     20 H           9.3267   -1.0350    0.0000 H       1  UNL1        0.0263
     21 H           4.9966    0.4149    0.0000 H       1  UNL1        0.0697
     22 H           4.1996    0.4149    0.0000 H       1  UNL1        0.0697
     23 H          10.1042   -0.5969    0.0000 H       1  UNL1        0.0230
     24 H          10.3312    0.2500    0.0000 H       1  UNL1        0.0230
     25 H           9.4842    0.4769    0.0000 H       1  UNL1        0.0230
     26 H           2.8660    0.5600    0.0000 H       1  UNL1        0.1512
@<TRIPOS>BOND
     1     1     8    1
     2     1    10    1
     3     2    10    2
     4     3     4    1
     5     3     5    1
     6     3    11    1
     7     3    12    1
     8     4     6    1
     9     4    13    1
    10     4    14    1
    11     5     7    1
    12     5    15    1
    13     5    16    1
    14     6     8    1
    15     6    17    1
    16     6    18    1
    17     7     9    1
    18     7    19    1
    19     7    20    1
    20     8    21    1
    21     8    22    1
    22     9    23    1
    23     9    24    1
    24     9    25    1
    25    10    26    1
