@<TRIPOS>MOLECULE
IMPHY012618
 13 13 0 0 0
SMALL
GASTEIGER

@<TRIPOS>ATOM
      1 O           2.0000   -0.0093    0.0000 O.2     1  UNL1       -0.2890
      2 O           3.7601    1.2694    0.0000 O.2     1  UNL1       -0.2890
      3 C           4.2601   -1.2694    0.0000 C.3     1  UNL1       -0.0388
      4 C           3.2601   -1.2694    0.0000 C.3     1  UNL1        0.0138
      5 C           4.5691   -0.3184    0.0000 C.3     1  UNL1        0.0138
      6 C           2.9511   -0.3184    0.0000 C.2     1  UNL1        0.1981
      7 C           3.7601    0.2694    0.0000 C.2     1  UNL1        0.1981
      8 H           4.1953   -1.8860    0.0000 H       1  UNL1        0.0273
      9 H           4.8665   -1.3983    0.0000 H       1  UNL1        0.0273
     10 H           2.6536   -1.3983    0.0000 H       1  UNL1        0.0346
     11 H           3.3249   -1.8860    0.0000 H       1  UNL1        0.0346
     12 H           5.1355   -0.5705    0.0000 H       1  UNL1        0.0346
     13 H           4.8791    0.2186    0.0000 H       1  UNL1        0.0346
@<TRIPOS>BOND
     1     1     6    2
     2     2     7    2
     3     3     4    1
     4     3     5    1
     5     3     8    1
     6     3     9    1
     7     4     6    1
     8     4    10    1
     9     4    11    1
    10     5     7    1
    11     5    12    1
    12     5    13    1
    13     6     7    1
