@<TRIPOS>MOLECULE
IMPHY017506
 25 24 0 0 0
SMALL
GASTEIGER

@<TRIPOS>ATOM
      1 O           2.0000    0.1900    0.0000 O.2     1  UNL1       -0.2957
      2 C           7.1962    0.1900    0.0000 C.2     1  UNL1       -0.0757
      3 C           6.3301    0.6900    0.0000 C.2     1  UNL1       -0.0630
      4 C           8.0622    0.6900    0.0000 C.3     1  UNL1       -0.0438
      5 C           7.1962   -0.8100    0.0000 C.3     1  UNL1       -0.0438
      6 C           5.4641    0.1900    0.0000 C.2     1  UNL1       -0.0612
      7 C           3.7320    0.1900    0.0000 C.2     1  UNL1        0.0100
      8 C           4.5981    0.6900    0.0000 C.2     1  UNL1       -0.0519
      9 C           3.7320   -0.8100    0.0000 C.2     1  UNL1       -0.0769
     10 C           2.8660   -1.3100    0.0000 C.3     1  UNL1       -0.0459
     11 C           2.8660    0.6900    0.0000 C.2     1  UNL1        0.1499
     12 H           6.3301    1.3100    0.0000 H       1  UNL1        0.0617
     13 H           8.3722    0.1531    0.0000 H       1  UNL1        0.0274
     14 H           8.5991    1.0000    0.0000 H       1  UNL1        0.0274
     15 H           7.7522    1.2269    0.0000 H       1  UNL1        0.0274
     16 H           6.5762   -0.8100    0.0000 H       1  UNL1        0.0274
     17 H           7.1962   -1.4300    0.0000 H       1  UNL1        0.0274
     18 H           7.8162   -0.8100    0.0000 H       1  UNL1        0.0274
     19 H           5.4641   -0.4300    0.0000 H       1  UNL1        0.0618
     20 H           4.5981    1.3100    0.0000 H       1  UNL1        0.0624
     21 H           4.2690   -1.1200    0.0000 H       1  UNL1        0.0576
     22 H           2.5560   -0.7731    0.0000 H       1  UNL1        0.0272
     23 H           2.3291   -1.6200    0.0000 H       1  UNL1        0.0272
     24 H           3.1760   -1.8469    0.0000 H       1  UNL1        0.0272
     25 H           2.8660    1.3100    0.0000 H       1  UNL1        0.1081
@<TRIPOS>BOND
     1     1    11    2
     2     2     3    2
     3     2     4    1
     4     2     5    1
     5     3     6    1
     6     3    12    1
     7     4    13    1
     8     4    14    1
     9     4    15    1
    10     5    16    1
    11     5    17    1
    12     5    18    1
    13     6     8    2
    14     6    19    1
    15     7     8    1
    16     7     9    2
    17     7    11    1
    18     8    20    1
    19     9    10    1
    20     9    21    1
    21    10    22    1
    22    10    23    1
    23    10    24    1
    24    11    25    1
