@<TRIPOS>MOLECULE
IMPHY016303
 26 25 0 0 0
SMALL
GASTEIGER

@<TRIPOS>ATOM
      1 O           6.3301    0.2500    0.0000 O.3     1  UNL1       -0.4804
      2 O           5.4641   -1.2500    0.0000 O.2     1  UNL1       -0.2507
      3 C           3.7320   -0.2500    0.0000 C.3     1  UNL1       -0.0289
      4 C           2.8660    0.2500    0.0000 C.3     1  UNL1       -0.0434
      5 C           4.5981    0.2500    0.0000 C.3     1  UNL1        0.0563
      6 C           3.7320   -1.2500    0.0000 C.3     1  UNL1       -0.0614
      7 C           2.0000   -0.2500    0.0000 C.3     1  UNL1       -0.0624
      8 C           2.8660    1.2500    0.0000 C.3     1  UNL1       -0.0624
      9 C           4.5981    1.2500    0.0000 C.3     1  UNL1       -0.0520
     10 C           5.4641   -0.2500    0.0000 C.2     1  UNL1        0.3078
     11 H           4.2690   -0.5600    0.0000 H       1  UNL1        0.0308
     12 H           2.8660   -0.3700    0.0000 H       1  UNL1        0.0298
     13 H           5.1350    0.5600    0.0000 H       1  UNL1        0.0413
     14 H           3.1120   -1.2500    0.0000 H       1  UNL1        0.0233
     15 H           3.7320   -1.8700    0.0000 H       1  UNL1        0.0233
     16 H           4.3520   -1.2500    0.0000 H       1  UNL1        0.0233
     17 H           1.6900    0.2869    0.0000 H       1  UNL1        0.0232
     18 H           1.4631   -0.5600    0.0000 H       1  UNL1        0.0232
     19 H           2.3100   -0.7869    0.0000 H       1  UNL1        0.0232
     20 H           3.4860    1.2500    0.0000 H       1  UNL1        0.0232
     21 H           2.8660    1.8700    0.0000 H       1  UNL1        0.0232
     22 H           2.2460    1.2500    0.0000 H       1  UNL1        0.0232
     23 H           5.2181    1.2500    0.0000 H       1  UNL1        0.0238
     24 H           4.5981    1.8700    0.0000 H       1  UNL1        0.0238
     25 H           3.9781    1.2500    0.0000 H       1  UNL1        0.0238
     26 H           6.8671   -0.0600    0.0000 H       1  UNL1        0.2951
@<TRIPOS>BOND
     1     1    10    1
     2     1    26    1
     3     2    10    2
     4     3     4    1
     5     3     5    1
     6     3     6    1
     7     3    11    1
     8     4     7    1
     9     4     8    1
    10     4    12    1
    11     5     9    1
    12     5    10    1
    13     5    13    1
    14     6    14    1
    15     6    15    1
    16     6    16    1
    17     7    17    1
    18     7    18    1
    19     7    19    1
    20     8    20    1
    21     8    21    1
    22     8    22    1
    23     9    23    1
    24     9    24    1
    25     9    25    1
