@<TRIPOS>MOLECULE
IMPHY014233
 39 41 0 0 0
SMALL
GASTEIGER

@<TRIPOS>ATOM
      1 O           3.7230   -0.8214    0.0000 O.3     1  UNL1       -0.4601
      2 O           4.5447    2.3440    0.0000 O.3     1  UNL1       -0.3911
      3 O           7.0268   -2.8100    0.0000 O.3     1  UNL1       -0.3875
      4 O           2.0000   -0.3892    0.0000 O.2     1  UNL1       -0.2505
      5 C           5.4786   -0.7476    0.0000 C.3     1  UNL1        0.0263
      6 C           4.5777   -0.3137    0.0000 C.3     1  UNL1        0.1160
      7 C           4.3551    0.6612    0.0000 C.3     1  UNL1        0.0356
      8 C           6.3796   -0.3137    0.0000 C.3     1  UNL1       -0.0075
      9 C           4.9786    1.4430    0.0000 C.3     1  UNL1        0.0658
     10 C           7.0647   -1.0340    0.0000 C.3     1  UNL1       -0.0158
     11 C           3.3648    0.7478    0.0000 C.3     1  UNL1        0.0622
     12 C           5.6146   -1.7323    0.0000 C.2     1  UNL1       -0.0414
     13 C           6.5929   -1.9090    0.0000 C.3     1  UNL1        0.0770
     14 C           6.6021    0.6612    0.0000 C.2     1  UNL1       -0.0703
     15 C           5.9786    1.4430    0.0000 C.3     1  UNL1       -0.0052
     16 C           2.9749   -0.1667    0.0000 C.2     1  UNL1        0.3107
     17 C           2.8504    1.6053    0.0000 C.3     1  UNL1       -0.0518
     18 C           4.8930   -2.4246    0.0000 C.2     1  UNL1       -0.0966
     19 C           7.5770    0.8837    0.0000 C.2     1  UNL1       -0.0991
     20 H           4.7916   -1.2481    0.0000 H       1  UNL1        0.0388
     21 H           4.6147   -1.1629    0.0000 H       1  UNL1        0.0744
     22 H           5.1838    0.4721    0.0000 H       1  UNL1        0.0370
     23 H           7.1993   -0.0886    0.0000 H       1  UNL1        0.0353
     24 H           4.3625    1.5125    0.0000 H       1  UNL1        0.0600
     25 H           7.5765   -1.3840    0.0000 H       1  UNL1        0.0299
     26 H           7.4666   -0.5619    0.0000 H       1  UNL1        0.0299
     27 H           3.6936    1.2734    0.0000 H       1  UNL1        0.0415
     28 H           7.2127   -1.9232    0.0000 H       1  UNL1        0.0640
     29 H           6.5372    1.7120    0.0000 H       1  UNL1        0.0335
     30 H           5.8407    2.0475    0.0000 H       1  UNL1        0.0335
     31 H           3.3821    1.9242    0.0000 H       1  UNL1        0.0238
     32 H           2.5315    2.1370    0.0000 H       1  UNL1        0.0238
     33 H           2.3188    1.2864    0.0000 H       1  UNL1        0.0238
     34 H           4.2976   -2.2518    0.0000 H       1  UNL1        0.0535
     35 H           5.0411   -3.0267    0.0000 H       1  UNL1        0.0535
     36 H           7.9988    0.4292    0.0000 H       1  UNL1        0.0535
     37 H           7.7598    1.4762    0.0000 H       1  UNL1        0.0535
     38 H           4.8940    2.8563    0.0000 H       1  UNL1        0.2098
     39 H           7.6450   -2.8563    0.0000 H       1  UNL1        0.2102
@<TRIPOS>BOND
     1     1     6    1
     2     1    16    1
     3     9     2    1
     4     2    38    1
     5    13     3    1
     6     3    39    1
     7     4    16    2
     8     5     6    1
     9     5     8    1
    10     5    12    1
    11     5    20    1
    12     6     7    1
    13     6    21    1
    14     7     9    1
    15     7    11    1
    16     7    22    1
    17     8    10    1
    18     8    14    1
    19     8    23    1
    20     9    15    1
    21     9    24    1
    22    10    13    1
    23    10    25    1
    24    10    26    1
    25    11    16    1
    26    11    17    1
    27    11    27    1
    28    12    13    1
    29    12    18    2
    30    13    28    1
    31    14    15    1
    32    14    19    2
    33    15    29    1
    34    15    30    1
    35    17    31    1
    36    17    32    1
    37    17    33    1
    38    18    34    1
    39    18    35    1
    40    19    36    1
    41    19    37    1
