@<TRIPOS>MOLECULE
IMPHY000174
 84 89 0 0 0
SMALL
GASTEIGER

@<TRIPOS>ATOM
      1 O           4.7412    2.7998    0.0000 O.3     1  UNL1       -0.3477
      2 O           3.8752    4.2998    0.0000 O.3     1  UNL1       -0.3640
      3 O           5.1096   -3.0278    0.0000 O.3     1  UNL1       -0.3673
      4 O           7.8033   -2.7189    0.0000 O.3     1  UNL1       -0.3866
      5 C           2.9932   -0.2694    0.0000 C.3     1  UNL1       -0.0230
      6 C           3.8752    1.2998    0.0000 C.3     1  UNL1        0.0012
      7 C           3.8912    0.2583    0.0000 C.3     1  UNL1       -0.0271
      8 C           2.9848   -1.3544    0.0000 C.3     1  UNL1       -0.0232
      9 C           3.0091    1.7998    0.0000 C.3     1  UNL1       -0.0230
     10 C           3.9244   -1.8969    0.0000 C.3     1  UNL1       -0.0297
     11 C           2.0911    0.2514    0.0000 C.3     1  UNL1       -0.0466
     12 C           3.0091    2.7998    0.0000 C.3     1  UNL1        0.0223
     13 C           4.8431   -0.2623    0.0000 C.3     1  UNL1       -0.0488
     14 C           3.6975   -2.9513    0.0000 C.3     1  UNL1       -0.0088
     15 C           2.0991    1.2930    0.0000 C.3     1  UNL1       -0.0484
     16 C           2.1852   -2.0782    0.0000 C.3     1  UNL1       -0.0465
     17 C           4.8599   -1.3472    0.0000 C.3     1  UNL1       -0.0491
     18 C           3.4752    1.8998    0.0000 C.3     1  UNL1       -0.0399
     19 C           3.8752    3.2998    0.0000 C.3     1  UNL1        0.1726
     20 C           4.7412    1.7998    0.0000 C.3     1  UNL1        0.0571
     21 C           2.6247   -3.0631    0.0000 C.3     1  UNL1       -0.0468
     22 C           3.4752    2.6998    0.0000 C.3     1  UNL1        0.0023
     23 C           2.0097   -0.4506    0.0000 C.3     1  UNL1       -0.0588
     24 C           2.0000   -1.1807    0.0000 C.3     1  UNL1       -0.0588
     25 C           4.3653   -3.6956    0.0000 C.3     1  UNL1        0.0704
     26 C           2.5091    3.6659    0.0000 C.3     1  UNL1       -0.0546
     27 C           2.0091    2.7998    0.0000 C.3     1  UNL1       -0.0546
     28 C           4.7704   -4.6098    0.0000 C.3     1  UNL1       -0.0213
     29 C           3.4510   -4.1008    0.0000 C.3     1  UNL1       -0.0355
     30 C           5.7652   -4.5070    0.0000 C.3     1  UNL1       -0.0213
     31 C           5.9748   -3.5292    0.0000 C.3     1  UNL1        0.0876
     32 C           6.8890   -3.1241    0.0000 C.3     1  UNL1        0.0865
     33 C           7.2942   -4.0383    0.0000 C.3     1  UNL1       -0.0339
     34 C           6.4838   -2.2098    0.0000 C.3     1  UNL1       -0.0339
     35 H           4.6190    0.6974    0.0000 H       1  UNL1        0.0312
     36 H           2.2730    2.2248    0.0000 H       1  UNL1        0.0314
     37 H           4.6134   -2.3947    0.0000 H       1  UNL1        0.0310
     38 H           1.4811    0.3622    0.0000 H       1  UNL1        0.0271
     39 H           1.8775   -0.3307    0.0000 H       1  UNL1        0.0271
     40 H           5.4556   -0.3589    0.0000 H       1  UNL1        0.0268
     41 H           5.0432    0.3246    0.0000 H       1  UNL1        0.0268
     42 H           3.3918   -3.7444    0.0000 H       1  UNL1        0.0331
     43 H           1.8946    1.8783    0.0000 H       1  UNL1        0.0268
     44 H           1.4875    1.1916    0.0000 H       1  UNL1        0.0268
     45 H           1.8197   -1.5773    0.0000 H       1  UNL1        0.0271
     46 H           1.6487   -2.3889    0.0000 H       1  UNL1        0.0271
     47 H           5.0779   -1.9276    0.0000 H       1  UNL1        0.0268
     48 H           5.4690   -1.2317    0.0000 H       1  UNL1        0.0268
     49 H           2.8881    2.0993    0.0000 H       1  UNL1        0.0273
     50 H           4.0686    2.0795    0.0000 H       1  UNL1        0.0273
     51 H           4.9532    1.2172    0.0000 H       1  UNL1        0.0566
     52 H           5.3518    1.9075    0.0000 H       1  UNL1        0.0566
     53 H           2.0351   -3.2549    0.0000 H       1  UNL1        0.0269
     54 H           2.7534   -3.6696    0.0000 H       1  UNL1        0.0269
     55 H           3.0974    3.1915    0.0000 H       1  UNL1        0.0317
     56 H           4.0686    2.5202    0.0000 H       1  UNL1        0.0317
     57 H           1.8974    0.1591    0.0000 H       1  UNL1        0.0235
     58 H           1.4000   -0.5630    0.0000 H       1  UNL1        0.0235
     59 H           2.1221   -1.0603    0.0000 H       1  UNL1        0.0235
     60 H           2.1077   -0.5702    0.0000 H       1  UNL1        0.0235
     61 H           1.3894   -1.0731    0.0000 H       1  UNL1        0.0235
     62 H           1.8923   -1.7913    0.0000 H       1  UNL1        0.0235
     63 H           3.0461    3.9759    0.0000 H       1  UNL1        0.0237
     64 H           2.1991    4.2028    0.0000 H       1  UNL1        0.0237
     65 H           1.9722    3.3559    0.0000 H       1  UNL1        0.0237
     66 H           2.0091    3.4198    0.0000 H       1  UNL1        0.0237
     67 H           1.3891    2.7998    0.0000 H       1  UNL1        0.0237
     68 H           2.0091    2.1798    0.0000 H       1  UNL1        0.0237
     69 H           4.1805   -4.8004    0.0000 H       1  UNL1        0.0294
     70 H           4.8983   -5.2165    0.0000 H       1  UNL1        0.0294
     71 H           4.4121    4.6098    0.0000 H       1  UNL1        0.2128
     72 H           3.1999   -3.5339    0.0000 H       1  UNL1        0.0257
     73 H           2.8842   -4.3520    0.0000 H       1  UNL1        0.0257
     74 H           3.7022   -4.6676    0.0000 H       1  UNL1        0.0257
     75 H           5.7641   -5.1270    0.0000 H       1  UNL1        0.0292
     76 H           6.3816   -4.5729    0.0000 H       1  UNL1        0.0292
     77 H           6.0207   -2.6805    0.0000 H       1  UNL1        0.0625
     78 H           6.7273   -4.2895    0.0000 H       1  UNL1        0.0258
     79 H           7.5454   -4.6052    0.0000 H       1  UNL1        0.0258
     80 H           7.8610   -3.7872    0.0000 H       1  UNL1        0.0258
     81 H           7.0507   -1.9586    0.0000 H       1  UNL1        0.0258
     82 H           6.2327   -1.6430    0.0000 H       1  UNL1        0.0258
     83 H           5.9170   -2.4610    0.0000 H       1  UNL1        0.0258
     84 H           8.3042   -3.0842    0.0000 H       1  UNL1        0.2102
@<TRIPOS>BOND
     1     1    19    1
     2     1    20    1
     3     2    19    1
     4     2    71    1
     5     3    25    1
     6     3    31    1
     7     4    32    1
     8     4    84    1
     9     5     7    1
    10     5     8    1
    11     5    11    1
    12     5    23    1
    13     6     7    1
    14     6     9    1
    15     6    18    1
    16     6    20    1
    17     7    13    1
    18     7    35    1
    19     8    10    1
    20     8    16    1
    21     8    24    1
    22     9    12    1
    23     9    15    1
    24     9    36    1
    25    10    14    1
    26    10    17    1
    27    10    37    1
    28    11    15    1
    29    11    38    1
    30    11    39    1
    31    12    19    1
    32    12    26    1
    33    12    27    1
    34    13    17    1
    35    13    40    1
    36    13    41    1
    37    14    21    1
    38    14    25    1
    39    14    42    1
    40    15    43    1
    41    15    44    1
    42    16    21    1
    43    16    45    1
    44    16    46    1
    45    17    47    1
    46    17    48    1
    47    18    22    1
    48    18    49    1
    49    18    50    1
    50    19    22    1
    51    20    51    1
    52    20    52    1
    53    21    53    1
    54    21    54    1
    55    22    55    1
    56    22    56    1
    57    23    57    1
    58    23    58    1
    59    23    59    1
    60    24    60    1
    61    24    61    1
    62    24    62    1
    63    25    28    1
    64    25    29    1
    65    26    63    1
    66    26    64    1
    67    26    65    1
    68    27    66    1
    69    27    67    1
    70    27    68    1
    71    28    30    1
    72    28    69    1
    73    28    70    1
    74    29    72    1
    75    29    73    1
    76    29    74    1
    77    30    31    1
    78    30    75    1
    79    30    76    1
    80    31    32    1
    81    31    77    1
    82    32    33    1
    83    32    34    1
    84    33    78    1
    85    33    79    1
    86    33    80    1
    87    34    81    1
    88    34    82    1
    89    34    83    1
