@<TRIPOS>MOLECULE
IMPHY011301
 46 50 0 0 0
SMALL
GASTEIGER

@<TRIPOS>ATOM
      1 O           6.3474    1.5215    0.0000 O.3     1  UNL1       -0.3721
      2 N           2.8393   -0.4854    0.0000 N.3     1  UNL1       -0.2932
      3 N           5.4814    0.0215    0.0000 N.ar    1  UNL1       -0.3161
      4 C           3.7493    1.0215    0.0000 C.3     1  UNL1       -0.0043
      5 C           3.7493    0.0215    0.0000 C.3     1  UNL1        0.0569
      6 C           4.6153    1.5215    0.0000 C.3     1  UNL1       -0.0001
      7 C           2.8911    1.5184    0.0000 C.3     1  UNL1       -0.0443
      8 C           4.6153   -0.4785    0.0000 C.ar    1  UNL1        0.0431
      9 C           5.4814    1.0215    0.0000 C.3     1  UNL1        0.1330
     10 C           3.7493    2.0215    0.0000 C.3     1  UNL1       -0.0483
     11 C           2.0256    1.0342    0.0000 C.3     1  UNL1       -0.0396
     12 C           2.0000    0.0428    0.0000 C.3     1  UNL1       -0.0004
     13 C           4.6314   -1.5200    0.0000 C.ar    1  UNL1       -0.0161
     14 C           2.8313   -1.5270    0.0000 C.3     1  UNL1        0.0036
     15 C           3.7334   -2.0478    0.0000 C.3     1  UNL1       -0.0125
     16 C           6.0993   -0.7569    0.0000 C.ar    1  UNL1        0.0517
     17 C           5.6194   -1.6272    0.0000 C.ar    1  UNL1        0.0035
     18 C           2.8833    2.5215    0.0000 C.3     1  UNL1       -0.0647
     19 C           7.1338   -0.7206    0.0000 C.ar    1  UNL1       -0.0375
     20 C           6.1408   -2.5215    0.0000 C.ar    1  UNL1       -0.0523
     21 C           7.6758   -1.6025    0.0000 C.ar    1  UNL1       -0.0598
     22 C           7.1760   -2.5091    0.0000 C.ar    1  UNL1       -0.0611
     23 H           3.7493   -0.8285    0.0000 H       1  UNL1        0.0532
     24 H           5.0139    1.9964    0.0000 H       1  UNL1        0.0315
     25 H           4.2168    1.9964    0.0000 H       1  UNL1        0.0315
     26 H           3.2922    1.9912    0.0000 H       1  UNL1        0.0272
     27 H           2.4971    1.9971    0.0000 H       1  UNL1        0.0272
     28 H           5.4814    1.6415    0.0000 H       1  UNL1        0.0836
     29 H           4.3599    1.9138    0.0000 H       1  UNL1        0.0269
     30 H           3.9614    2.6041    0.0000 H       1  UNL1        0.0269
     31 H           1.8239    1.6205    0.0000 H       1  UNL1        0.0278
     32 H           1.4128    0.9399    0.0000 H       1  UNL1        0.0278
     33 H           1.3929    0.1687    0.0000 H       1  UNL1        0.0427
     34 H           1.7682   -0.5322    0.0000 H       1  UNL1        0.0427
     35 H           2.2213   -1.4162    0.0000 H       1  UNL1        0.0430
     36 H           2.6177   -2.1090    0.0000 H       1  UNL1        0.0430
     37 H           3.3361   -2.5238    0.0000 H       1  UNL1        0.0326
     38 H           4.1343   -2.5207    0.0000 H       1  UNL1        0.0326
     39 H           3.1933    3.0584    0.0000 H       1  UNL1        0.0230
     40 H           2.3464    2.8315    0.0000 H       1  UNL1        0.0230
     41 H           2.5733    1.9845    0.0000 H       1  UNL1        0.0230
     42 H           6.3474    2.1415    0.0000 H       1  UNL1        0.2120
     43 H           7.4269   -0.1742    0.0000 H       1  UNL1        0.0638
     44 H           5.8352   -3.0609    0.0000 H       1  UNL1        0.0624
     45 H           8.2956   -1.5879    0.0000 H       1  UNL1        0.0618
     46 H           7.4944   -3.0410    0.0000 H       1  UNL1        0.0618
@<TRIPOS>BOND
     1     9     1    1
     2     1    42    1
     3     2     5    1
     4     2    12    1
     5     2    14    1
     6     3     8   ar
     7     3     9    1
     8     3    16   ar
     9     4     5    1
    10     4     6    1
    11     4     7    1
    12     4    10    1
    13     5     8    1
    14     5    23    1
    15     6     9    1
    16     6    24    1
    17     6    25    1
    18     7    11    1
    19     7    26    1
    20     7    27    1
    21     8    13   ar
    22     9    28    1
    23    10    18    1
    24    10    29    1
    25    10    30    1
    26    11    12    1
    27    11    31    1
    28    11    32    1
    29    12    33    1
    30    12    34    1
    31    13    15    1
    32    13    17   ar
    33    14    15    1
    34    14    35    1
    35    14    36    1
    36    15    37    1
    37    15    38    1
    38    16    17   ar
    39    16    19   ar
    40    17    20   ar
    41    18    39    1
    42    18    40    1
    43    18    41    1
    44    19    21   ar
    45    19    43    1
    46    20    22   ar
    47    20    44    1
    48    21    22   ar
    49    21    45    1
    50    22    46    1
