@<TRIPOS>MOLECULE
IMPHY004370
 54 57 0 0 0
SMALL
GASTEIGER

@<TRIPOS>ATOM
      1 O           7.3062    1.5678    0.0000 O.3     1  UNL1       -0.4807
      2 O           3.7702    1.5956    0.0000 O.2     1  UNL1       -0.4213
      3 O           5.5301   -1.4390    0.0000 O.3     1  UNL1       -0.5052
      4 O           7.2622   -1.4390    0.0000 O.2     1  UNL1       -0.2918
      5 O           2.0000    1.5851    0.0000 O.2     1  UNL1       -0.2452
      6 C           7.3142    2.6094    0.0000 C.3     1  UNL1        0.1235
      7 C           6.3961    1.0610    0.0000 C.ar    1  UNL1        0.1464
      8 C           5.5301    1.5610    0.0000 C.ar    1  UNL1        0.0604
      9 C           6.3961    0.0610    0.0000 C.ar    1  UNL1        0.1017
     10 C           4.6641    0.0610    0.0000 C.ar    1  UNL1        0.0682
     11 C           4.6641    1.0610    0.0000 C.ar    1  UNL1        0.1538
     12 C           6.4121    3.1302    0.0000 C.2     1  UNL1       -0.0408
     13 C           5.5301   -0.4390    0.0000 C.ar    1  UNL1        0.1421
     14 C           5.5141    2.6025    0.0000 C.2     1  UNL1       -0.0477
     15 C           8.1282    0.0610    0.0000 C.3     1  UNL1        0.0130
     16 C           8.9942   -0.4390    0.0000 C.3     1  UNL1       -0.0397
     17 C           7.2622   -0.4390    0.0000 C.2     1  UNL1        0.1705
     18 C           7.8175    3.4735    0.0000 C.3     1  UNL1       -0.0215
     19 C           8.3142    2.6056    0.0000 C.3     1  UNL1       -0.0215
     20 C           3.7702   -0.4737    0.0000 C.ar    1  UNL1        0.0031
     21 C           9.8602    0.0610    0.0000 C.3     1  UNL1       -0.0623
     22 C           8.9942   -1.4390    0.0000 C.3     1  UNL1       -0.0623
     23 C           2.8641    0.0401    0.0000 C.ar    1  UNL1        0.0314
     24 C           3.7817   -1.4736    0.0000 C.ar    1  UNL1       -0.0169
     25 C           2.8641    1.0818    0.0000 C.ar    1  UNL1        0.3378
     26 C           2.9215   -1.9836    0.0000 C.ar    1  UNL1       -0.0540
     27 C           4.6535   -1.9636    0.0000 C.ar    1  UNL1       -0.0540
     28 C           2.9331   -2.9836    0.0000 C.ar    1  UNL1       -0.0612
     29 C           4.6650   -2.9635    0.0000 C.ar    1  UNL1       -0.0612
     30 C           3.8048   -3.4735    0.0000 C.ar    1  UNL1       -0.0617
     31 H           6.4097    3.7502    0.0000 H       1  UNL1        0.0611
     32 H           4.9736    2.9062    0.0000 H       1  UNL1        0.0624
     33 H           8.5267    0.5359    0.0000 H       1  UNL1        0.0348
     34 H           7.7297    0.5359    0.0000 H       1  UNL1        0.0348
     35 H           8.4573   -0.7490    0.0000 H       1  UNL1        0.0300
     36 H           8.3532    3.1614    0.0000 H       1  UNL1        0.0271
     37 H           8.1296    4.0092    0.0000 H       1  UNL1        0.0271
     38 H           7.2818    3.7856    0.0000 H       1  UNL1        0.0271
     39 H           8.3118    1.9856    0.0000 H       1  UNL1        0.0271
     40 H           8.9342    2.6032    0.0000 H       1  UNL1        0.0271
     41 H           8.3166    3.2256    0.0000 H       1  UNL1        0.0271
     42 H          10.1703   -0.4760    0.0000 H       1  UNL1        0.0232
     43 H          10.3972    0.3710    0.0000 H       1  UNL1        0.0232
     44 H           9.5502    0.5979    0.0000 H       1  UNL1        0.0232
     45 H           8.3742   -1.4390    0.0000 H       1  UNL1        0.0232
     46 H           8.9942   -2.0590    0.0000 H       1  UNL1        0.0232
     47 H           9.6142   -1.4390    0.0000 H       1  UNL1        0.0232
     48 H           2.3284   -0.2719    0.0000 H       1  UNL1        0.0695
     49 H           6.0671   -1.7490    0.0000 H       1  UNL1        0.2922
     50 H           2.3810   -1.6798    0.0000 H       1  UNL1        0.0624
     51 H           5.1868   -1.6474    0.0000 H       1  UNL1        0.0624
     52 H           2.3998   -3.2997    0.0000 H       1  UNL1        0.0618
     53 H           5.2055   -3.2673    0.0000 H       1  UNL1        0.0618
     54 H           3.8120   -4.0935    0.0000 H       1  UNL1        0.0618
@<TRIPOS>BOND
     1     1     6    1
     2     1     7    1
     3     2    11   ar
     4     2    25   ar
     5     3    13    1
     6     3    49    1
     7     4    17    2
     8     5    25    2
     9     6    12    1
    10     6    18    1
    11     6    19    1
    12     7     8   ar
    13     7     9   ar
    14     8    11   ar
    15     8    14    1
    16     9    13   ar
    17     9    17    1
    18    10    11   ar
    19    10    13   ar
    20    10    20   ar
    21    12    14    2
    22    12    31    1
    23    14    32    1
    24    15    16    1
    25    15    17    1
    26    15    33    1
    27    15    34    1
    28    16    21    1
    29    16    22    1
    30    16    35    1
    31    18    36    1
    32    18    37    1
    33    18    38    1
    34    19    39    1
    35    19    40    1
    36    19    41    1
    37    20    23   ar
    38    20    24    1
    39    21    42    1
    40    21    43    1
    41    21    44    1
    42    22    45    1
    43    22    46    1
    44    22    47    1
    45    23    25   ar
    46    23    48    1
    47    24    26   ar
    48    24    27   ar
    49    26    28   ar
    50    26    50    1
    51    27    29   ar
    52    27    51    1
    53    28    30   ar
    54    28    52    1
    55    29    30   ar
    56    29    53    1
    57    30    54    1
