@<TRIPOS>MOLECULE
IMPHY009085
 33 32 0 0 0
SMALL
GASTEIGER

@<TRIPOS>ATOM
      1 C           7.1962    0.2500    0.0000 C.3     1  UNL1       -0.0531
      2 C           6.3301   -0.2500    0.0000 C.3     1  UNL1       -0.0530
      3 C           8.0622   -0.2500    0.0000 C.3     1  UNL1       -0.0531
      4 C           5.4641    0.2500    0.0000 C.3     1  UNL1       -0.0528
      5 C           8.9282    0.2500    0.0000 C.3     1  UNL1       -0.0533
      6 C           4.5981   -0.2500    0.0000 C.3     1  UNL1       -0.0496
      7 C           9.7942   -0.2500    0.0000 C.3     1  UNL1       -0.0559
      8 C           3.7320    0.2500    0.0000 C.3     1  UNL1       -0.0350
      9 C          10.6603    0.2500    0.0000 C.3     1  UNL1       -0.0653
     10 C           2.8660   -0.2500    0.0000 C.2     1  UNL1       -0.0911
     11 C           2.0000    0.2500    0.0000 C.2     1  UNL1       -0.1026
     12 H           7.5947    0.7249    0.0000 H       1  UNL1        0.0265
     13 H           6.7976    0.7249    0.0000 H       1  UNL1        0.0265
     14 H           5.9316   -0.7249    0.0000 H       1  UNL1        0.0265
     15 H           6.7287   -0.7249    0.0000 H       1  UNL1        0.0265
     16 H           7.6636   -0.7249    0.0000 H       1  UNL1        0.0265
     17 H           8.4607   -0.7249    0.0000 H       1  UNL1        0.0265
     18 H           5.8626    0.7249    0.0000 H       1  UNL1        0.0265
     19 H           5.0656    0.7249    0.0000 H       1  UNL1        0.0265
     20 H           9.3267    0.7249    0.0000 H       1  UNL1        0.0265
     21 H           8.5297    0.7249    0.0000 H       1  UNL1        0.0265
     22 H           4.1996   -0.7249    0.0000 H       1  UNL1        0.0268
     23 H           4.9966   -0.7249    0.0000 H       1  UNL1        0.0268
     24 H           9.3957   -0.7249    0.0000 H       1  UNL1        0.0263
     25 H          10.1928   -0.7249    0.0000 H       1  UNL1        0.0263
     26 H           4.1306    0.7249    0.0000 H       1  UNL1        0.0307
     27 H           3.3335    0.7249    0.0000 H       1  UNL1        0.0307
     28 H          10.9703   -0.2869    0.0000 H       1  UNL1        0.0230
     29 H          11.1972    0.5600    0.0000 H       1  UNL1        0.0230
     30 H          10.3503    0.7869    0.0000 H       1  UNL1        0.0230
     31 H           2.8660   -0.8700    0.0000 H       1  UNL1        0.0566
     32 H           2.0000    0.8700    0.0000 H       1  UNL1        0.0532
     33 H           1.4631   -0.0600    0.0000 H       1  UNL1        0.0532
@<TRIPOS>BOND
     1     1     2    1
     2     1     3    1
     3     1    12    1
     4     1    13    1
     5     2     4    1
     6     2    14    1
     7     2    15    1
     8     3     5    1
     9     3    16    1
    10     3    17    1
    11     4     6    1
    12     4    18    1
    13     4    19    1
    14     5     7    1
    15     5    20    1
    16     5    21    1
    17     6     8    1
    18     6    22    1
    19     6    23    1
    20     7     9    1
    21     7    24    1
    22     7    25    1
    23     8    10    1
    24     8    26    1
    25     8    27    1
    26     9    28    1
    27     9    29    1
    28     9    30    1
    29    10    11    2
    30    10    31    1
    31    11    32    1
    32    11    33    1
