@<TRIPOS>MOLECULE
IMPHY007169
 29 32 0 0 0
SMALL
GASTEIGER

@<TRIPOS>ATOM
      1 O           4.5124   -0.7323    0.0000 O.3     1  UNL1       -0.4831
      2 O           6.6564    1.3362    0.0000 O.3     1  UNL1       -0.4908
      3 C           5.0091    0.8010    0.0000 C.3     1  UNL1        0.0629
      4 C           5.3181   -0.1501    0.0000 C.3     1  UNL1        0.1385
      5 C           4.0150    0.7984    0.0000 C.ar    1  UNL1        0.0045
      6 C           5.6782    1.5441    0.0000 C.3     1  UNL1        0.1002
      7 C           6.2962   -0.3580    0.0000 C.ar    1  UNL1        0.0350
      8 C           3.7086   -0.1473    0.0000 C.ar    1  UNL1        0.1251
      9 C           6.9654    0.3852    0.0000 C.ar    1  UNL1        0.1272
     10 C           3.3334    1.5779    0.0000 C.ar    1  UNL1       -0.0546
     11 C           6.6028   -1.3535    0.0000 C.ar    1  UNL1       -0.0516
     12 C           2.6994   -0.3790    0.0000 C.ar    1  UNL1       -0.0196
     13 C           7.9875    0.1843    0.0000 C.ar    1  UNL1       -0.0195
     14 C           2.3191    1.3696    0.0000 C.ar    1  UNL1       -0.0613
     15 C           2.0000    0.3845    0.0000 C.ar    1  UNL1       -0.0583
     16 C           7.6200   -1.5779    0.0000 C.ar    1  UNL1       -0.0612
     17 C           8.3170   -0.8038    0.0000 C.ar    1  UNL1       -0.0583
     18 H           4.7562    1.3671    0.0000 H       1  UNL1        0.0423
     19 H           5.4462   -0.7567    0.0000 H       1  UNL1        0.0793
     20 H           5.9105    2.1190    0.0000 H       1  UNL1        0.0704
     21 H           5.1524    1.8727    0.0000 H       1  UNL1        0.0704
     22 H           3.5313    2.1655    0.0000 H       1  UNL1        0.0622
     23 H           6.1826   -1.8094    0.0000 H       1  UNL1        0.0623
     24 H           2.5152   -0.9710    0.0000 H       1  UNL1        0.0654
     25 H           8.3970    0.6498    0.0000 H       1  UNL1        0.0654
     26 H           1.9056    1.8315    0.0000 H       1  UNL1        0.0618
     27 H           1.3942    0.2527    0.0000 H       1  UNL1        0.0619
     28 H           7.8093   -2.1683    0.0000 H       1  UNL1        0.0618
     29 H           8.9239   -0.9304    0.0000 H       1  UNL1        0.0619
@<TRIPOS>BOND
     1     1     4    1
     2     1     8    1
     3     2     6    1
     4     2     9    1
     5     3     4    1
     6     3     5    1
     7     3     6    1
     8     3    18    1
     9     4     7    1
    10     4    19    1
    11     5     8   ar
    12     5    10   ar
    13     6    20    1
    14     6    21    1
    15     7     9   ar
    16     7    11   ar
    17     8    12   ar
    18     9    13   ar
    19    10    14   ar
    20    10    22    1
    21    11    16   ar
    22    11    23    1
    23    12    15   ar
    24    12    24    1
    25    13    17   ar
    26    13    25    1
    27    14    15   ar
    28    14    26    1
    29    15    27    1
    30    16    17   ar
    31    16    28    1
    32    17    29    1
