@<TRIPOS>MOLECULE
IMPHY006974
 50 55 0 0 0
SMALL
GASTEIGER

@<TRIPOS>ATOM
      1 O           2.8455    1.8938    0.0000 O.co2   1  UNL1       -0.7747
      2 O           7.8436   -0.3417    0.0000 O.3     1  UNL1       -0.4677
      3 O           6.9776   -1.8417    0.0000 O.2     1  UNL1       -0.2505
      4 N           3.7124    1.3953    0.0000 N.3     1  UNL1        0.2235
      5 N           5.0363   -1.8135    0.0000 N.pl3   1  UNL1       -0.3359
      6 C           4.3795   -0.3417    0.0000 C.3     1  UNL1        0.0677
      7 C           5.2455   -0.8417    0.0000 C.3     1  UNL1        0.0635
      8 C           4.3795    0.6583    0.0000 C.3     1  UNL1        0.0003
      9 C           5.2455    1.1583    0.0000 C.3     1  UNL1        0.0379
     10 C           4.8795    0.1583    0.0000 C.3     1  UNL1       -0.0065
     11 C           6.1115   -0.3417    0.0000 C.3     1  UNL1        0.0798
     12 C           6.1115    0.6583    0.0000 C.3     1  UNL1       -0.0234
     13 C           3.4077   -0.1325    0.0000 C.3     1  UNL1        0.0043
     14 C           3.0546    0.9232    0.0000 C.3     1  UNL1       -0.0310
     15 C           3.6425   -1.0088    0.0000 C.ar    1  UNL1       -0.0127
     16 C           5.4666    2.1248    0.0000 C.2     1  UNL1       -0.0712
     17 C           3.7934    2.3834    0.0000 C.3     1  UNL1       -0.0135
     18 C           3.8795    0.1583    0.0000 C.3     1  UNL1       -0.0594
     19 C           4.0476   -1.9166    0.0000 C.ar    1  UNL1        0.0316
     20 C           4.7089    2.7641    0.0000 C.2     1  UNL1       -0.0427
     21 C           6.9776   -0.8417    0.0000 C.2     1  UNL1        0.3121
     22 C           2.6144   -0.8856    0.0000 C.ar    1  UNL1       -0.0560
     23 C           3.4527   -2.7641    0.0000 C.ar    1  UNL1       -0.0406
     24 C           2.0000   -1.7191    0.0000 C.ar    1  UNL1       -0.0614
     25 C           2.4220   -2.6647    0.0000 C.ar    1  UNL1       -0.0600
     26 C           8.7096   -0.8417    0.0000 C.3     1  UNL1        0.0817
     27 H           3.5424    0.8059    0.0000 H       1  UNL1        0.0868
     28 H           4.5243    0.6665    0.0000 H       1  UNL1        0.0330
     29 H           6.1115   -0.9617    0.0000 H       1  UNL1        0.0435
     30 H           6.7221    0.5506    0.0000 H       1  UNL1        0.0284
     31 H           6.3236    1.2409    0.0000 H       1  UNL1        0.0284
     32 H           2.7941   -0.2218    0.0000 H       1  UNL1        0.0328
     33 H           3.3867   -0.7522    0.0000 H       1  UNL1        0.0328
     34 H           2.7451    1.4604    0.0000 H       1  UNL1        0.0814
     35 H           2.4892    0.6689    0.0000 H       1  UNL1        0.0814
     36 H           5.4504   -2.2750    0.0000 H       1  UNL1        0.1467
     37 H           6.0547    2.3213    0.0000 H       1  UNL1        0.0578
     38 H           3.6488    2.9863    0.0000 H       1  UNL1        0.0860
     39 H           3.1752    2.3359    0.0000 H       1  UNL1        0.0860
     40 H           3.8795    0.7783    0.0000 H       1  UNL1        0.0233
     41 H           3.2595    0.1583    0.0000 H       1  UNL1        0.0233
     42 H           3.8795   -0.4617    0.0000 H       1  UNL1        0.0233
     43 H           4.8036    3.3768    0.0000 H       1  UNL1        0.0622
     44 H           2.3683   -0.3165    0.0000 H       1  UNL1        0.0621
     45 H           3.7119   -3.3273    0.0000 H       1  UNL1        0.0636
     46 H           1.3836   -1.6525    0.0000 H       1  UNL1        0.0618
     47 H           2.0599   -3.1680    0.0000 H       1  UNL1        0.0618
     48 H           8.3996   -1.3786    0.0000 H       1  UNL1        0.0661
     49 H           9.2465   -1.1517    0.0000 H       1  UNL1        0.0661
     50 H           9.0196   -0.3048    0.0000 H       1  UNL1        0.0661
@<TRIPOS>UNITY_ATOM_ATTR
1 1
charge -1
4 1
charge 1
@<TRIPOS>BOND
     1     1     4    1
     2     2    21    1
     3     2    26    1
     4     3    21    2
     5     4     8    1
     6     4    14    1
     7     4    17    1
     8     7     5    1
     9     5    19    1
    10     5    36    1
    11     6     7    1
    12     6     8    1
    13     6    13    1
    14     6    15    1
    15     7    10    1
    16     7    11    1
    17     8     9    1
    18     8    27    1
    19     9    10    1
    20     9    12    1
    21     9    16    1
    22    10    18    1
    23    10    28    1
    24    11    12    1
    25    11    21    1
    26    11    29    1
    27    12    30    1
    28    12    31    1
    29    13    14    1
    30    13    32    1
    31    13    33    1
    32    14    34    1
    33    14    35    1
    34    15    19   ar
    35    15    22   ar
    36    16    20    2
    37    16    37    1
    38    17    20    1
    39    17    38    1
    40    17    39    1
    41    18    40    1
    42    18    41    1
    43    18    42    1
    44    19    23   ar
    45    20    43    1
    46    22    24   ar
    47    22    44    1
    48    23    25   ar
    49    23    45    1
    50    24    25   ar
    51    24    46    1
    52    25    47    1
    53    26    48    1
    54    26    49    1
    55    26    50    1
