@<TRIPOS>MOLECULE
IMPHY008895
 98 101 0 0 0
SMALL
GASTEIGER

@<TRIPOS>ATOM
      1 O           5.2614   -6.9949    0.0000 O.3     1  UNL1       -0.3566
      2 O           4.6783    6.0565    0.0000 O.3     1  UNL1       -0.3578
      3 C           6.2619   -6.9952    0.0000 C.3     1  UNL1        0.1223
      4 C           5.7619   -7.8612    0.0000 C.3     1  UNL1        0.1009
      5 C           7.2619   -6.9952    0.0000 C.3     1  UNL1        0.0005
      6 C           6.2619   -8.7272    0.0000 C.3     1  UNL1       -0.0209
      7 C           7.7619   -7.8612    0.0000 C.3     1  UNL1       -0.0448
      8 C           7.2619   -8.7272    0.0000 C.3     1  UNL1       -0.0498
      9 C           5.2619   -8.7272    0.0000 C.3     1  UNL1       -0.0327
     10 C           6.7619   -6.1292    0.0000 C.2     1  UNL1       -0.0491
     11 C           8.2619   -6.9952    0.0000 C.3     1  UNL1       -0.0568
     12 C           8.0279   -6.3524    0.0000 C.3     1  UNL1       -0.0568
     13 C           6.2619   -5.2631    0.0000 C.2     1  UNL1       -0.0600
     14 C           6.7619   -4.3971    0.0000 C.2     1  UNL1       -0.0507
     15 C           3.7320    6.3612    0.0000 C.3     1  UNL1        0.0894
     16 C           2.8660    7.8612    0.0000 C.3     1  UNL1       -0.0111
     17 C           3.7320    7.3612    0.0000 C.2     1  UNL1       -0.0340
     18 C           2.8660    5.8612    0.0000 C.3     1  UNL1       -0.0200
     19 C           2.0000    7.3612    0.0000 C.3     1  UNL1       -0.0440
     20 C           2.0000    6.3612    0.0000 C.3     1  UNL1       -0.0494
     21 C           7.7619   -4.3971    0.0000 C.3     1  UNL1       -0.0397
     22 C           6.2619   -3.5311    0.0000 C.2     1  UNL1       -0.0588
     23 C           4.6783    7.6660    0.0000 C.2     1  UNL1       -0.0491
     24 C           5.2619    6.8612    0.0000 C.3     1  UNL1        0.0994
     25 C           3.7320    5.3612    0.0000 C.3     1  UNL1       -0.0319
     26 C           2.3660    8.7272    0.0000 C.3     1  UNL1       -0.0560
     27 C           3.3660    8.7272    0.0000 C.3     1  UNL1       -0.0560
     28 C           6.2619    6.8612    0.0000 C.2     1  UNL1       -0.0404
     29 C           6.7619   -2.6651    0.0000 C.2     1  UNL1       -0.0613
     30 C           6.7619    7.7272    0.0000 C.3     1  UNL1       -0.0408
     31 C           6.7619    5.9952    0.0000 C.2     1  UNL1       -0.0600
     32 C           6.2619   -1.7990    0.0000 C.2     1  UNL1       -0.0588
     33 C           6.2619    5.1292    0.0000 C.2     1  UNL1       -0.0615
     34 C           6.7619   -0.9330    0.0000 C.2     1  UNL1       -0.0504
     35 C           6.7619    4.2631    0.0000 C.2     1  UNL1       -0.0588
     36 C           7.7619   -0.9330    0.0000 C.3     1  UNL1       -0.0397
     37 C           6.2619   -0.0670    0.0000 C.2     1  UNL1       -0.0588
     38 C           6.2619    3.3971    0.0000 C.2     1  UNL1       -0.0504
     39 C           6.7619    0.7990    0.0000 C.2     1  UNL1       -0.0615
     40 C           6.7619    2.5311    0.0000 C.2     1  UNL1       -0.0588
     41 C           5.2619    3.3971    0.0000 C.3     1  UNL1       -0.0397
     42 C           6.2619    1.6651    0.0000 C.2     1  UNL1       -0.0615
     43 H           5.6793   -8.9393    0.0000 H       1  UNL1        0.0294
     44 H           6.3695   -9.3378    0.0000 H       1  UNL1        0.0294
     45 H           8.2368   -8.2597    0.0000 H       1  UNL1        0.0271
     46 H           8.2368   -7.4627    0.0000 H       1  UNL1        0.0271
     47 H           7.1542   -9.3378    0.0000 H       1  UNL1        0.0266
     48 H           7.8445   -8.9393    0.0000 H       1  UNL1        0.0266
     49 H           4.7249   -8.4172    0.0000 H       1  UNL1        0.0258
     50 H           4.9519   -9.2642    0.0000 H       1  UNL1        0.0258
     51 H           5.7988   -9.0372    0.0000 H       1  UNL1        0.0258
     52 H           7.3445   -5.9171    0.0000 H       1  UNL1        0.0602
     53 H           8.4265   -6.8274    0.0000 H       1  UNL1        0.0236
     54 H           8.2619   -7.6152    0.0000 H       1  UNL1        0.0236
     55 H           8.8819   -6.9952    0.0000 H       1  UNL1        0.0236
     56 H           8.2619   -6.3752    0.0000 H       1  UNL1        0.0236
     57 H           8.5029   -5.9539    0.0000 H       1  UNL1        0.0236
     58 H           7.6294   -5.8775    0.0000 H       1  UNL1        0.0236
     59 H           5.6419   -5.2631    0.0000 H       1  UNL1        0.0618
     60 H           2.4675    5.3863    0.0000 H       1  UNL1        0.0296
     61 H           3.2646    5.3863    0.0000 H       1  UNL1        0.0296
     62 H           1.7880    7.9438    0.0000 H       1  UNL1        0.0274
     63 H           1.3894    7.2536    0.0000 H       1  UNL1        0.0274
     64 H           1.3894    6.4689    0.0000 H       1  UNL1        0.0267
     65 H           1.7880    5.7786    0.0000 H       1  UNL1        0.0267
     66 H           7.7619   -5.0171    0.0000 H       1  UNL1        0.0278
     67 H           8.3819   -4.3971    0.0000 H       1  UNL1        0.0278
     68 H           7.7619   -3.7771    0.0000 H       1  UNL1        0.0278
     69 H           5.6419   -3.5311    0.0000 H       1  UNL1        0.0620
     70 H           4.8709    8.2553    0.0000 H       1  UNL1        0.0601
     71 H           5.5436    6.3089    0.0000 H       1  UNL1        0.0688
     72 H           3.1120    5.3612    0.0000 H       1  UNL1        0.0261
     73 H           3.7320    4.7412    0.0000 H       1  UNL1        0.0261
     74 H           4.3520    5.3612    0.0000 H       1  UNL1        0.0261
     75 H           2.9030    9.0372    0.0000 H       1  UNL1        0.0238
     76 H           2.0560    9.2642    0.0000 H       1  UNL1        0.0238
     77 H           1.8291    8.4172    0.0000 H       1  UNL1        0.0238
     78 H           3.9030    8.4172    0.0000 H       1  UNL1        0.0238
     79 H           3.6760    9.2642    0.0000 H       1  UNL1        0.0238
     80 H           2.8291    9.0372    0.0000 H       1  UNL1        0.0238
     81 H           7.3819   -2.6651    0.0000 H       1  UNL1        0.0618
     82 H           7.2988    7.4172    0.0000 H       1  UNL1        0.0275
     83 H           7.0719    8.2642    0.0000 H       1  UNL1        0.0275
     84 H           6.2249    8.0372    0.0000 H       1  UNL1        0.0275
     85 H           7.3819    5.9952    0.0000 H       1  UNL1        0.0618
     86 H           5.6419   -1.7990    0.0000 H       1  UNL1        0.0620
     87 H           5.6419    5.1292    0.0000 H       1  UNL1        0.0618
     88 H           7.3819    4.2631    0.0000 H       1  UNL1        0.0620
     89 H           7.7619   -1.5530    0.0000 H       1  UNL1        0.0278
     90 H           8.3819   -0.9330    0.0000 H       1  UNL1        0.0278
     91 H           7.7619   -0.3130    0.0000 H       1  UNL1        0.0278
     92 H           5.6419   -0.0670    0.0000 H       1  UNL1        0.0620
     93 H           7.3819    0.7990    0.0000 H       1  UNL1        0.0618
     94 H           7.3819    2.5311    0.0000 H       1  UNL1        0.0620
     95 H           5.2619    4.0171    0.0000 H       1  UNL1        0.0278
     96 H           4.6419    3.3971    0.0000 H       1  UNL1        0.0278
     97 H           5.2619    2.7771    0.0000 H       1  UNL1        0.0278
     98 H           5.6419    1.6651    0.0000 H       1  UNL1        0.0618
@<TRIPOS>BOND
     1     1     3    1
     2     1     4    1
     3     2    15    1
     4     2    24    1
     5     3     4    1
     6     3     5    1
     7     3    10    1
     8     4     6    1
     9     4     9    1
    10     5     7    1
    11     5    11    1
    12     5    12    1
    13     6     8    1
    14     6    43    1
    15     6    44    1
    16     7     8    1
    17     7    45    1
    18     7    46    1
    19     8    47    1
    20     8    48    1
    21     9    49    1
    22     9    50    1
    23     9    51    1
    24    10    13    2
    25    10    52    1
    26    11    54    1
    27    11    55    1
    28    11    56    1
    29    12    53    1
    30    12    57    1
    31    12    58    1
    32    13    14    1
    33    13    59    1
    34    14    21    1
    35    14    22    2
    36    15    17    1
    37    15    18    1
    38    15    25    1
    39    16    17    1
    40    16    19    1
    41    16    26    1
    42    16    27    1
    43    17    23    2
    44    18    20    1
    45    18    60    1
    46    18    61    1
    47    19    20    1
    48    19    62    1
    49    19    63    1
    50    20    64    1
    51    20    65    1
    52    21    66    1
    53    21    67    1
    54    21    68    1
    55    22    29    1
    56    22    69    1
    57    23    24    1
    58    23    70    1
    59    24    28    1
    60    24    71    1
    61    25    72    1
    62    25    73    1
    63    25    74    1
    64    26    75    1
    65    26    76    1
    66    26    77    1
    67    27    78    1
    68    27    79    1
    69    27    80    1
    70    28    30    1
    71    28    31    2
    72    29    32    2
    73    29    81    1
    74    30    82    1
    75    30    83    1
    76    30    84    1
    77    31    33    1
    78    31    85    1
    79    32    34    1
    80    32    86    1
    81    33    35    2
    82    33    87    1
    83    34    36    1
    84    34    37    2
    85    35    38    1
    86    35    88    1
    87    36    89    1
    88    36    90    1
    89    36    91    1
    90    37    39    1
    91    37    92    1
    92    38    40    2
    93    38    41    1
    94    39    42    2
    95    39    93    1
    96    40    42    1
    97    40    94    1
    98    41    95    1
    99    41    96    1
   100    41    97    1
   101    42    98    1
