@<TRIPOS>MOLECULE
IMPHY017764
 12 11 0 0 0
SMALL
GASTEIGER

@<TRIPOS>ATOM
      1 O           2.5369   -0.2500    0.0000 O.3     1  UNL1       -0.3825
      2 O           6.8671    0.2500    0.0000 O.3     1  UNL1       -0.3825
      3 C           3.4030   -0.7500    0.0000 C.3     1  UNL1        0.1049
      4 C           6.0010    0.7500    0.0000 C.3     1  UNL1        0.1049
      5 C           4.2690   -0.2500    0.0000 C.1     1  UNL1       -0.0720
      6 C           5.1350    0.2500    0.0000 C.1     1  UNL1       -0.0720
      7 H           3.0044   -1.2250    0.0000 H       1  UNL1        0.0694
      8 H           3.8015   -1.2250    0.0000 H       1  UNL1        0.0694
      9 H           6.3996    1.2250    0.0000 H       1  UNL1        0.0694
     10 H           5.6025    1.2250    0.0000 H       1  UNL1        0.0694
     11 H           2.0000   -0.5600    0.0000 H       1  UNL1        0.2107
     12 H           7.4040    0.5600    0.0000 H       1  UNL1        0.2107
@<TRIPOS>BOND
     1     1     3    1
     2     1    11    1
     3     2     4    1
     4     2    12    1
     5     3     5    1
     6     3     7    1
     7     3     8    1
     8     4     6    1
     9     4     9    1
    10     4    10    1
    11     5     6    3
