@<TRIPOS>MOLECULE
IMPHY014376
 186 194 0 0 0
SMALL
GASTEIGER

@<TRIPOS>ATOM
      1 O          15.6779    8.8087    0.0000 O.3     1  UNL1       -0.3849
      2 O          15.6805    8.1560    0.0000 O.3     1  UNL1       -0.3851
      3 O          12.0925    9.4686    0.0000 O.3     1  UNL1       -0.4575
      4 O          13.0514   10.6537    0.0000 O.3     1  UNL1       -0.3803
      5 O          13.7953    3.2784    0.0000 O.3     1  UNL1       -0.3477
      6 O          13.0089   11.8469    0.0000 O.2     1  UNL1       -0.2946
      7 O          11.2323    7.9652    0.0000 O.2     1  UNL1       -0.2456
      8 O          12.9292    1.7784    0.0000 O.3     1  UNL1       -0.3456
      9 O          10.3312    3.2784    0.0000 O.3     1  UNL1       -0.3770
     10 O          10.3312    1.2784    0.0000 O.3     1  UNL1       -0.3429
     11 O          11.1972   -0.2216    0.0000 O.3     1  UNL1       -0.3456
     12 O           8.5991   -1.7216    0.0000 O.3     1  UNL1       -0.3770
     13 O          10.3312   -2.7216    0.0000 O.3     1  UNL1       -0.3429
     14 O           8.5991   -2.7216    0.0000 O.3     1  UNL1       -0.3456
     15 O           6.8671   -4.7216    0.0000 O.3     1  UNL1       -0.3429
     16 O           8.5991   -5.7216    0.0000 O.3     1  UNL1       -0.3770
     17 O           6.0010   -6.2216    0.0000 O.3     1  UNL1       -0.3456
     18 O           6.8671   -8.7216    0.0000 O.3     1  UNL1       -0.3403
     19 O           8.5991   -7.7216    0.0000 O.3     1  UNL1       -0.3770
     20 O           5.1350   -8.7216    0.0000 O.3     1  UNL1       -0.3405
     21 O           6.8671  -10.7216    0.0000 O.3     1  UNL1       -0.3841
     22 O           5.1350  -11.7216    0.0000 O.3     1  UNL1       -0.3864
     23 O           3.4030  -10.7216    0.0000 O.3     1  UNL1       -0.3865
     24 O           2.5369   -9.2216    0.0000 O.3     1  UNL1       -0.3924
     25 C          14.6925    8.9786    0.0000 C.3     1  UNL1        0.1070
     26 C          13.8245    9.4752    0.0000 C.3     1  UNL1        0.0718
     27 C          14.6963    7.9786    0.0000 C.3     1  UNL1        0.1024
     28 C          13.8322    7.4752    0.0000 C.3     1  UNL1        0.0033
     29 C          12.9604    8.9719    0.0000 C.3     1  UNL1        0.1149
     30 C          14.0300   10.4478    0.0000 C.3     1  UNL1        0.1347
     31 C          13.8202    6.4337    0.0000 C.3     1  UNL1       -0.0053
     32 C          12.9643    7.9719    0.0000 C.3     1  UNL1       -0.0086
     33 C          15.4269    9.6485    0.0000 C.3     1  UNL1       -0.0175
     34 C          15.0183   10.5547    0.0000 C.3     1  UNL1       -0.0136
     35 C          15.6083    7.4752    0.0000 C.3     1  UNL1       -0.0025
     36 C          12.9566    9.9719    0.0000 C.3     1  UNL1       -0.0503
     37 C          14.7203    5.9094    0.0000 C.2     1  UNL1       -0.0647
     38 C          12.8703    5.9094    0.0000 C.3     1  UNL1       -0.0412
     39 C          15.6203    6.4337    0.0000 C.2     1  UNL1       -0.0813
     40 C          12.9561    6.9370    0.0000 C.3     1  UNL1       -0.0555
     41 C          13.9233   11.4421    0.0000 C.2     1  UNL1        0.1623
     42 C          14.7328    4.8245    0.0000 C.3     1  UNL1       -0.0047
     43 C          12.8577    4.8245    0.0000 C.3     1  UNL1       -0.0254
     44 C          13.7953    4.2784    0.0000 C.3     1  UNL1        0.0654
     45 C          14.7311   12.0316    0.0000 C.3     1  UNL1       -0.0031
     46 C          11.2284    8.9652    0.0000 C.2     1  UNL1        0.3322
     47 C          12.9292    2.7784    0.0000 C.3     1  UNL1        0.1624
     48 C          10.3604    9.4619    0.0000 C.2     1  UNL1        0.0217
     49 C          12.0632    3.2784    0.0000 C.3     1  UNL1        0.0272
     50 C           9.4964    8.9585    0.0000 C.2     1  UNL1       -0.0633
     51 C          11.1972    2.7784    0.0000 C.3     1  UNL1        0.0915
     52 C          12.0632    1.2784    0.0000 C.3     1  UNL1        0.0875
     53 C          11.1972    1.7784    0.0000 C.3     1  UNL1        0.1137
     54 C           8.6284    9.4552    0.0000 C.3     1  UNL1       -0.0253
     55 C           9.5002    7.9586    0.0000 C.3     1  UNL1       -0.0430
     56 C          12.0632    0.2784    0.0000 C.3     1  UNL1       -0.0361
     57 C           7.7643    8.9519    0.0000 C.3     1  UNL1       -0.0590
     58 C           8.6246   10.4552    0.0000 C.3     1  UNL1       -0.0590
     59 C          10.3312    0.2784    0.0000 C.3     1  UNL1        0.1626
     60 C          10.3312    4.2784    0.0000 C.3     1  UNL1        0.0369
     61 C           9.4651   -0.2216    0.0000 C.3     1  UNL1        0.0272
     62 C           9.4651   -1.2216    0.0000 C.3     1  UNL1        0.0915
     63 C          11.1972   -1.2216    0.0000 C.3     1  UNL1        0.0875
     64 C          10.3312   -1.7216    0.0000 C.3     1  UNL1        0.1137
     65 C          12.0632   -1.7216    0.0000 C.3     1  UNL1       -0.0361
     66 C           9.4651   -3.2216    0.0000 C.3     1  UNL1        0.1626
     67 C           7.7331   -1.2216    0.0000 C.3     1  UNL1        0.0369
     68 C           9.4651   -4.2216    0.0000 C.3     1  UNL1        0.0272
     69 C           8.5991   -4.7216    0.0000 C.3     1  UNL1        0.0915
     70 C           7.7331   -3.2216    0.0000 C.3     1  UNL1        0.0875
     71 C           7.7331   -4.2216    0.0000 C.3     1  UNL1        0.1137
     72 C           6.8671   -2.7216    0.0000 C.3     1  UNL1       -0.0361
     73 C           6.8671   -5.7216    0.0000 C.3     1  UNL1        0.1626
     74 C           7.7331   -6.2216    0.0000 C.3     1  UNL1        0.0272
     75 C           7.7331   -7.2216    0.0000 C.3     1  UNL1        0.0915
     76 C           6.8671   -7.7216    0.0000 C.3     1  UNL1        0.1138
     77 C           6.0010   -7.2216    0.0000 C.3     1  UNL1        0.0875
     78 C           9.4651   -6.2216    0.0000 C.3     1  UNL1        0.0369
     79 C           6.0010   -9.2216    0.0000 C.3     1  UNL1        0.1884
     80 C           5.1350   -7.7216    0.0000 C.3     1  UNL1       -0.0361
     81 C           6.0010  -10.2216    0.0000 C.3     1  UNL1        0.1341
     82 C           5.1350  -10.7216    0.0000 C.3     1  UNL1        0.1141
     83 C           4.2690  -10.2216    0.0000 C.3     1  UNL1        0.1119
     84 C           4.2690   -9.2216    0.0000 C.3     1  UNL1        0.1130
     85 C           9.4651   -7.2216    0.0000 C.3     1  UNL1        0.0369
     86 C           3.4030   -8.7216    0.0000 C.3     1  UNL1        0.0730
     87 H          14.5667    7.0474    0.0000 H       1  UNL1        0.0339
     88 H          12.4247    8.6598    0.0000 H       1  UNL1        0.0741
     89 H          12.3533    8.0772    0.0000 H       1  UNL1        0.0305
     90 H          12.7545    7.3885    0.0000 H       1  UNL1        0.0305
     91 H          15.7943    9.1491    0.0000 H       1  UNL1        0.0295
     92 H          15.9622    9.9613    0.0000 H       1  UNL1        0.0295
     93 H          15.6072   10.7487    0.0000 H       1  UNL1        0.0298
     94 H          14.8872   11.1607    0.0000 H       1  UNL1        0.0298
     95 H          16.2203    7.3762    0.0000 H       1  UNL1        0.0336
     96 H          15.8106    8.0613    0.0000 H       1  UNL1        0.0336
     97 H          13.2645   10.5100    0.0000 H       1  UNL1        0.0238
     98 H          12.4185   10.2798    0.0000 H       1  UNL1        0.0238
     99 H          12.6487    9.4338    0.0000 H       1  UNL1        0.0238
    100 H          12.6680    6.4955    0.0000 H       1  UNL1        0.0274
    101 H          12.2582    5.8104    0.0000 H       1  UNL1        0.0274
    102 H          16.1596    6.1278    0.0000 H       1  UNL1        0.0573
    103 H          16.0746    9.2852    0.0000 H       1  UNL1        0.2103
    104 H          13.2682    7.4728    0.0000 H       1  UNL1        0.0238
    105 H          12.4204    7.2491    0.0000 H       1  UNL1        0.0238
    106 H          12.6440    6.4013    0.0000 H       1  UNL1        0.0238
    107 H          16.2639    7.9462    0.0000 H       1  UNL1        0.2103
    108 H          14.9486    4.2432    0.0000 H       1  UNL1        0.0335
    109 H          15.3424    4.9376    0.0000 H       1  UNL1        0.0335
    110 H          12.2481    4.9376    0.0000 H       1  UNL1        0.0290
    111 H          12.6419    4.2432    0.0000 H       1  UNL1        0.0290
    112 H          14.3328    3.9694    0.0000 H       1  UNL1        0.0600
    113 H          12.8586   11.2429    0.0000 H       1  UNL1        0.2108
    114 H          15.0966   11.5308    0.0000 H       1  UNL1        0.0307
    115 H          15.2319   12.3971    0.0000 H       1  UNL1        0.0307
    116 H          14.3656   12.5325    0.0000 H       1  UNL1        0.0307
    117 H          12.9292    3.3984    0.0000 H       1  UNL1        0.0910
    118 H          10.3581   10.0819    0.0000 H       1  UNL1        0.0688
    119 H          12.4617    3.7533    0.0000 H       1  UNL1        0.0340
    120 H          11.6647    3.7533    0.0000 H       1  UNL1        0.0340
    121 H          11.1972    3.3984    0.0000 H       1  UNL1        0.0624
    122 H          12.6002    0.9684    0.0000 H       1  UNL1        0.0621
    123 H          10.6603    2.0884    0.0000 H       1  UNL1        0.0649
    124 H           9.1642    9.7673    0.0000 H       1  UNL1        0.0340
    125 H           8.8802    7.9562    0.0000 H       1  UNL1        0.0275
    126 H           9.5026    7.3386    0.0000 H       1  UNL1        0.0275
    127 H          10.1202    7.9609    0.0000 H       1  UNL1        0.0275
    128 H          11.4432    0.2784    0.0000 H       1  UNL1        0.0255
    129 H          12.0632   -0.3416    0.0000 H       1  UNL1        0.0255
    130 H          12.6832    0.2784    0.0000 H       1  UNL1        0.0255
    131 H           7.4522    9.4876    0.0000 H       1  UNL1        0.0235
    132 H           7.2286    8.6398    0.0000 H       1  UNL1        0.0235
    133 H           8.0764    8.4161    0.0000 H       1  UNL1        0.0235
    134 H           9.2446   10.4576    0.0000 H       1  UNL1        0.0235
    135 H           8.6222   11.0752    0.0000 H       1  UNL1        0.0235
    136 H           8.0046   10.4528    0.0000 H       1  UNL1        0.0235
    137 H           9.7942    0.5884    0.0000 H       1  UNL1        0.0910
    138 H          10.9512    4.2784    0.0000 H       1  UNL1        0.0524
    139 H          10.3312    4.8984    0.0000 H       1  UNL1        0.0524
    140 H           9.7112    4.2784    0.0000 H       1  UNL1        0.0524
    141 H           9.2531    0.3610    0.0000 H       1  UNL1        0.0340
    142 H           8.8546   -0.3293    0.0000 H       1  UNL1        0.0340
    143 H           9.4651   -1.8416    0.0000 H       1  UNL1        0.0624
    144 H          11.7341   -0.9116    0.0000 H       1  UNL1        0.0621
    145 H          10.8681   -2.0316    0.0000 H       1  UNL1        0.0649
    146 H          11.7532   -2.2586    0.0000 H       1  UNL1        0.0255
    147 H          12.6002   -2.0316    0.0000 H       1  UNL1        0.0255
    148 H          12.3732   -1.1847    0.0000 H       1  UNL1        0.0255
    149 H           9.4651   -2.6016    0.0000 H       1  UNL1        0.0910
    150 H           8.0431   -0.6847    0.0000 H       1  UNL1        0.0524
    151 H           7.1962   -0.9116    0.0000 H       1  UNL1        0.0524
    152 H           7.4231   -1.7586    0.0000 H       1  UNL1        0.0524
    153 H           9.6772   -4.8042    0.0000 H       1  UNL1        0.0340
    154 H          10.0757   -4.1140    0.0000 H       1  UNL1        0.0340
    155 H           8.0622   -5.0316    0.0000 H       1  UNL1        0.0624
    156 H           7.7331   -2.6016    0.0000 H       1  UNL1        0.0621
    157 H           7.1962   -3.9116    0.0000 H       1  UNL1        0.0649
    158 H           7.1771   -2.1847    0.0000 H       1  UNL1        0.0255
    159 H           6.3301   -2.4116    0.0000 H       1  UNL1        0.0255
    160 H           6.5571   -3.2586    0.0000 H       1  UNL1        0.0255
    161 H           7.4040   -5.4116    0.0000 H       1  UNL1        0.0910
    162 H           8.3437   -6.3293    0.0000 H       1  UNL1        0.0340
    163 H           7.9451   -5.6390    0.0000 H       1  UNL1        0.0340
    164 H           8.2700   -6.9116    0.0000 H       1  UNL1        0.0624
    165 H           7.4040   -8.0316    0.0000 H       1  UNL1        0.0649
    166 H           5.4641   -6.9116    0.0000 H       1  UNL1        0.0621
    167 H           9.1551   -6.7586    0.0000 H       1  UNL1        0.0524
    168 H          10.0021   -6.5316    0.0000 H       1  UNL1        0.0524
    169 H           9.7751   -5.6847    0.0000 H       1  UNL1        0.0524
    170 H           6.0010   -8.6016    0.0000 H       1  UNL1        0.0938
    171 H           4.8250   -7.1847    0.0000 H       1  UNL1        0.0255
    172 H           4.5981   -8.0316    0.0000 H       1  UNL1        0.0255
    173 H           5.4450   -8.2586    0.0000 H       1  UNL1        0.0255
    174 H           6.0010  -10.8416    0.0000 H       1  UNL1        0.0671
    175 H           4.5981  -11.0316    0.0000 H       1  UNL1        0.0648
    176 H           4.2690  -10.8416    0.0000 H       1  UNL1        0.0647
    177 H           4.2690   -8.6016    0.0000 H       1  UNL1        0.0647
    178 H           9.7751   -7.7586    0.0000 H       1  UNL1        0.0524
    179 H          10.0021   -6.9116    0.0000 H       1  UNL1        0.0524
    180 H           9.1551   -6.6847    0.0000 H       1  UNL1        0.0524
    181 H           3.8015   -8.2467    0.0000 H       1  UNL1        0.0584
    182 H           3.0044   -8.2467    0.0000 H       1  UNL1        0.0584
    183 H           7.4040  -10.4116    0.0000 H       1  UNL1        0.2101
    184 H           5.6720  -12.0316    0.0000 H       1  UNL1        0.2100
    185 H           3.4030  -11.3416    0.0000 H       1  UNL1        0.2100
    186 H           2.0000   -8.9116    0.0000 H       1  UNL1        0.2095
@<TRIPOS>BOND
     1    25     1    1
     2     1   103    1
     3    27     2    1
     4     2   107    1
     5    29     3    1
     6     3    46    1
     7    30     4    1
     8     4   113    1
     9    44     5    1
    10    47     5    1
    11     6    41    2
    12     7    46    2
    13     8    47    1
    14     8    52    1
    15    51     9    1
    16     9    60    1
    17    53    10    1
    18    59    10    1
    19    11    59    1
    20    11    63    1
    21    62    12    1
    22    12    67    1
    23    64    13    1
    24    66    13    1
    25    14    66    1
    26    14    70    1
    27    71    15    1
    28    73    15    1
    29    69    16    1
    30    16    78    1
    31    17    73    1
    32    17    77    1
    33    76    18    1
    34    79    18    1
    35    75    19    1
    36    19    85    1
    37    20    79    1
    38    20    84    1
    39    81    21    1
    40    21   183    1
    41    82    22    1
    42    22   184    1
    43    83    23    1
    44    23   185    1
    45    24    86    1
    46    24   186    1
    47    25    26    1
    48    25    27    1
    49    25    33    1
    50    26    29    1
    51    26    30    1
    52    26    36    1
    53    27    28    1
    54    27    35    1
    55    28    31    1
    56    28    32    1
    57    28    87    1
    58    29    32    1
    59    29    88    1
    60    30    34    1
    61    30    41    1
    62    31    37    1
    63    31    38    1
    64    31    40    1
    65    32    89    1
    66    32    90    1
    67    33    34    1
    68    33    91    1
    69    33    92    1
    70    34    93    1
    71    34    94    1
    72    35    39    1
    73    35    95    1
    74    35    96    1
    75    36    97    1
    76    36    98    1
    77    36    99    1
    78    37    39    2
    79    37    42    1
    80    38    43    1
    81    38   100    1
    82    38   101    1
    83    39   102    1
    84    40   104    1
    85    40   105    1
    86    40   106    1
    87    41    45    1
    88    42    44    1
    89    42   108    1
    90    42   109    1
    91    43    44    1
    92    43   110    1
    93    43   111    1
    94    44   112    1
    95    45   114    1
    96    45   115    1
    97    45   116    1
    98    46    48    1
    99    47    49    1
   100    47   117    1
   101    48    50    2
   102    48   118    1
   103    49    51    1
   104    49   119    1
   105    49   120    1
   106    50    54    1
   107    50    55    1
   108    51    53    1
   109    51   121    1
   110    52    53    1
   111    52    56    1
   112    52   122    1
   113    53   123    1
   114    54    57    1
   115    54    58    1
   116    54   124    1
   117    55   125    1
   118    55   126    1
   119    55   127    1
   120    56   128    1
   121    56   129    1
   122    56   130    1
   123    57   131    1
   124    57   132    1
   125    57   133    1
   126    58   134    1
   127    58   135    1
   128    58   136    1
   129    59    61    1
   130    59   137    1
   131    60   138    1
   132    60   139    1
   133    60   140    1
   134    61    62    1
   135    61   141    1
   136    61   142    1
   137    62    64    1
   138    62   143    1
   139    63    64    1
   140    63    65    1
   141    63   144    1
   142    64   145    1
   143    65   146    1
   144    65   147    1
   145    65   148    1
   146    66    68    1
   147    66   149    1
   148    67   150    1
   149    67   151    1
   150    67   152    1
   151    68    69    1
   152    68   153    1
   153    68   154    1
   154    69    71    1
   155    69   155    1
   156    70    71    1
   157    70    72    1
   158    70   156    1
   159    71   157    1
   160    72   158    1
   161    72   159    1
   162    72   160    1
   163    73    74    1
   164    73   161    1
   165    74    75    1
   166    74   162    1
   167    74   163    1
   168    75    76    1
   169    75   164    1
   170    76    77    1
   171    76   165    1
   172    77    80    1
   173    77   166    1
   174    78   167    1
   175    78   168    1
   176    78   169    1
   177    79    81    1
   178    79   170    1
   179    80   171    1
   180    80   172    1
   181    80   173    1
   182    81    82    1
   183    81   174    1
   184    82    83    1
   185    82   175    1
   186    83    84    1
   187    83   176    1
   188    84    86    1
   189    84   177    1
   190    85   178    1
   191    85   179    1
   192    85   180    1
   193    86   181    1
   194    86   182    1
