@<TRIPOS>MOLECULE
IMPHY016842
 39 42 0 0 0
SMALL
GASTEIGER

@<TRIPOS>ATOM
      1 O           3.0332    1.6245    0.0000 O.3     1  UNL1       -0.4872
      2 O           6.3683    1.4574    0.0000 O.3     1  UNL1       -0.5056
      3 O           7.1167   -0.7375    0.0000 O.2     1  UNL1       -0.2830
      4 O           3.7581   -3.1118    0.0000 O.3     1  UNL1       -0.5060
      5 O           6.1016   -2.5785    0.0000 O.2     1  UNL1       -0.2830
      6 C           4.4270    2.4292    0.0000 C.3     1  UNL1        0.0337
      7 C           3.4383    2.5323    0.0000 C.3     1  UNL1        0.1067
      8 C           4.6362    1.4574    0.0000 C.ar    1  UNL1        0.0461
      9 C           3.7702    0.9574    0.0000 C.ar    1  UNL1        0.1362
     10 C           3.7702   -0.0426    0.0000 C.ar    1  UNL1        0.0288
     11 C           4.5298    3.4239    0.0000 C.3     1  UNL1       -0.0522
     12 C           5.4048    2.6388    0.0000 C.3     1  UNL1       -0.0522
     13 C           5.5022    0.9574    0.0000 C.ar    1  UNL1        0.1357
     14 C           4.6362   -0.5426    0.0000 C.ar    1  UNL1        0.0148
     15 C           5.5022   -0.0426    0.0000 C.ar    1  UNL1        0.0759
     16 C           2.9383    3.3983    0.0000 C.3     1  UNL1       -0.0270
     17 C           4.6523   -1.5841    0.0000 C.ar    1  UNL1        0.0755
     18 C           2.8602   -0.5494    0.0000 C.ar    1  UNL1       -0.0357
     19 C           6.1202   -0.8210    0.0000 C.2     1  UNL1        0.2372
     20 C           5.6403   -1.6912    0.0000 C.2     1  UNL1        0.2372
     21 C           3.7542   -2.1119    0.0000 C.ar    1  UNL1        0.1286
     22 C           2.8522   -1.5910    0.0000 C.ar    1  UNL1       -0.0158
     23 C           2.0000   -0.0395    0.0000 C.3     1  UNL1       -0.0389
     24 H           2.8191    2.5001    0.0000 H       1  UNL1        0.0739
     25 H           5.1465    3.3602    0.0000 H       1  UNL1        0.0239
     26 H           4.5936    4.0406    0.0000 H       1  UNL1        0.0239
     27 H           3.9131    3.4877    0.0000 H       1  UNL1        0.0239
     28 H           5.5348    2.0326    0.0000 H       1  UNL1        0.0239
     29 H           6.0110    2.7688    0.0000 H       1  UNL1        0.0239
     30 H           5.2748    3.2450    0.0000 H       1  UNL1        0.0239
     31 H           3.4752    3.7083    0.0000 H       1  UNL1        0.0265
     32 H           2.6283    3.9352    0.0000 H       1  UNL1        0.0265
     33 H           2.4014    3.0883    0.0000 H       1  UNL1        0.0265
     34 H           2.3140   -1.8990    0.0000 H       1  UNL1        0.0657
     35 H           2.3162    0.4939    0.0000 H       1  UNL1        0.0278
     36 H           1.4667    0.2767    0.0000 H       1  UNL1        0.0278
     37 H           1.6838   -0.5728    0.0000 H       1  UNL1        0.0278
     38 H           6.9052    1.1474    0.0000 H       1  UNL1        0.2922
     39 H           3.2224   -3.4239    0.0000 H       1  UNL1        0.2922
@<TRIPOS>BOND
     1     1     7    1
     2     1     9    1
     3     2    13    1
     4     2    38    1
     5     3    19    2
     6     4    21    1
     7     4    39    1
     8     5    20    2
     9     6     7    1
    10     6     8    1
    11     6    11    1
    12     6    12    1
    13     7    16    1
    14     7    24    1
    15     8     9   ar
    16     8    13   ar
    17     9    10   ar
    18    10    14   ar
    19    10    18   ar
    20    11    25    1
    21    11    26    1
    22    11    27    1
    23    12    28    1
    24    12    29    1
    25    12    30    1
    26    13    15   ar
    27    14    15   ar
    28    14    17   ar
    29    15    19    1
    30    16    31    1
    31    16    32    1
    32    16    33    1
    33    17    20    1
    34    17    21   ar
    35    18    22   ar
    36    18    23    1
    37    19    20    1
    38    21    22   ar
    39    22    34    1
    40    23    35    1
    41    23    36    1
    42    23    37    1
