@<TRIPOS>MOLECULE
IMPHY010163
 75 74 0 0 0
SMALL
GASTEIGER

@<TRIPOS>ATOM
      1 O          14.1244    3.2500    0.0000 O.2     1  UNL1       -0.2708
      2 N          14.9904    4.7500    0.0000 N.am    1  UNL1       -0.3116
      3 C           4.5981   -1.2500    0.0000 C.3     1  UNL1       -0.0531
      4 C           3.7320   -1.7500    0.0000 C.3     1  UNL1       -0.0531
      5 C           4.5981   -0.2500    0.0000 C.3     1  UNL1       -0.0530
      6 C           3.7320   -2.7500    0.0000 C.3     1  UNL1       -0.0531
      7 C           5.4641    0.2500    0.0000 C.3     1  UNL1       -0.0528
      8 C           2.8660   -3.2500    0.0000 C.3     1  UNL1       -0.0531
      9 C           5.4641    1.2500    0.0000 C.3     1  UNL1       -0.0496
     10 C           2.8660   -4.2500    0.0000 C.3     1  UNL1       -0.0533
     11 C           6.3301    1.7500    0.0000 C.3     1  UNL1       -0.0348
     12 C           2.0000   -4.7500    0.0000 C.3     1  UNL1       -0.0559
     13 C           6.3301    2.7500    0.0000 C.2     1  UNL1       -0.0879
     14 C           2.0000   -5.7500    0.0000 C.3     1  UNL1       -0.0653
     15 C           8.0622    2.7500    0.0000 C.3     1  UNL1       -0.0348
     16 C           8.9282    3.2500    0.0000 C.3     1  UNL1       -0.0493
     17 C           7.1962    3.2500    0.0000 C.2     1  UNL1       -0.0879
     18 C           9.7942    2.7500    0.0000 C.3     1  UNL1       -0.0493
     19 C          10.6603    3.2500    0.0000 C.3     1  UNL1       -0.0345
     20 C          16.7224    4.7500    0.0000 C.3     1  UNL1       -0.0311
     21 C          15.8564    4.2500    0.0000 C.3     1  UNL1        0.0142
     22 C          11.5263    2.7500    0.0000 C.2     1  UNL1       -0.0840
     23 C          17.5885    4.2500    0.0000 C.3     1  UNL1       -0.0612
     24 C          16.7224    5.7500    0.0000 C.3     1  UNL1       -0.0612
     25 C          12.3923    3.2500    0.0000 C.2     1  UNL1       -0.0655
     26 C          14.1244    4.2500    0.0000 C.2     1  UNL1        0.2369
     27 C          12.3923    4.2500    0.0000 C.2     1  UNL1       -0.0571
     28 C          13.2583    4.7500    0.0000 C.2     1  UNL1        0.0001
     29 H           4.8101   -1.8326    0.0000 H       1  UNL1        0.0265
     30 H           5.2087   -1.1423    0.0000 H       1  UNL1        0.0265
     31 H           3.5200   -1.1674    0.0000 H       1  UNL1        0.0265
     32 H           3.1215   -1.8577    0.0000 H       1  UNL1        0.0265
     33 H           4.3860    0.3326    0.0000 H       1  UNL1        0.0265
     34 H           3.9875   -0.3577    0.0000 H       1  UNL1        0.0265
     35 H           3.9441   -3.3326    0.0000 H       1  UNL1        0.0265
     36 H           4.3426   -2.6423    0.0000 H       1  UNL1        0.0265
     37 H           5.6762   -0.3326    0.0000 H       1  UNL1        0.0265
     38 H           6.0747    0.3577    0.0000 H       1  UNL1        0.0265
     39 H           2.6540   -2.6674    0.0000 H       1  UNL1        0.0265
     40 H           2.2554   -3.3577    0.0000 H       1  UNL1        0.0265
     41 H           5.2520    1.8326    0.0000 H       1  UNL1        0.0268
     42 H           4.8535    1.1423    0.0000 H       1  UNL1        0.0268
     43 H           3.0781   -4.8326    0.0000 H       1  UNL1        0.0265
     44 H           3.4766   -4.1423    0.0000 H       1  UNL1        0.0265
     45 H           6.5422    1.1674    0.0000 H       1  UNL1        0.0307
     46 H           6.9407    1.8577    0.0000 H       1  UNL1        0.0307
     47 H           1.7880   -4.1674    0.0000 H       1  UNL1        0.0263
     48 H           1.3894   -4.8577    0.0000 H       1  UNL1        0.0263
     49 H           5.7932    3.0600    0.0000 H       1  UNL1        0.0569
     50 H           1.3800   -5.7500    0.0000 H       1  UNL1        0.0230
     51 H           2.0000   -6.3700    0.0000 H       1  UNL1        0.0230
     52 H           2.6200   -5.7500    0.0000 H       1  UNL1        0.0230
     53 H           7.6636    2.2750    0.0000 H       1  UNL1        0.0307
     54 H           8.4607    2.2750    0.0000 H       1  UNL1        0.0307
     55 H           9.3267    3.7250    0.0000 H       1  UNL1        0.0268
     56 H           8.5297    3.7250    0.0000 H       1  UNL1        0.0268
     57 H           7.1962    3.8700    0.0000 H       1  UNL1        0.0569
     58 H           9.3957    2.2750    0.0000 H       1  UNL1        0.0268
     59 H          10.1928    2.2750    0.0000 H       1  UNL1        0.0268
     60 H          11.0588    3.7250    0.0000 H       1  UNL1        0.0307
     61 H          10.2617    3.7250    0.0000 H       1  UNL1        0.0307
     62 H          16.1855    5.0600    0.0000 H       1  UNL1        0.0311
     63 H          15.4579    3.7750    0.0000 H       1  UNL1        0.0465
     64 H          16.2549    3.7750    0.0000 H       1  UNL1        0.0465
     65 H          11.5263    2.1300    0.0000 H       1  UNL1        0.0572
     66 H          17.3424    5.7500    0.0000 H       1  UNL1        0.0233
     67 H          16.7224    6.3700    0.0000 H       1  UNL1        0.0233
     68 H          16.1024    5.7500    0.0000 H       1  UNL1        0.0233
     69 H          17.2785    3.7131    0.0000 H       1  UNL1        0.0233
     70 H          18.1254    3.9400    0.0000 H       1  UNL1        0.0233
     71 H          17.8985    4.7869    0.0000 H       1  UNL1        0.0233
     72 H          14.9904    5.3700    0.0000 H       1  UNL1        0.1490
     73 H          12.9292    2.9400    0.0000 H       1  UNL1        0.0614
     74 H          11.8554    4.5600    0.0000 H       1  UNL1        0.0619
     75 H          13.2583    5.3700    0.0000 H       1  UNL1        0.0669
@<TRIPOS>BOND
     1     1    26    2
     2     2    21    1
     3     2    26   am
     4     2    72    1
     5     3     4    1
     6     3     5    1
     7     3    29    1
     8     3    30    1
     9     4     6    1
    10     4    31    1
    11     4    32    1
    12     5     7    1
    13     5    33    1
    14     5    34    1
    15     6     8    1
    16     6    35    1
    17     6    36    1
    18     7     9    1
    19     7    37    1
    20     7    38    1
    21     8    10    1
    22     8    39    1
    23     8    40    1
    24     9    11    1
    25     9    41    1
    26     9    42    1
    27    10    12    1
    28    10    43    1
    29    10    44    1
    30    11    13    1
    31    11    45    1
    32    11    46    1
    33    12    14    1
    34    12    47    1
    35    12    48    1
    36    13    17    2
    37    13    49    1
    38    14    50    1
    39    14    51    1
    40    14    52    1
    41    15    16    1
    42    15    17    1
    43    15    53    1
    44    15    54    1
    45    16    18    1
    46    16    55    1
    47    16    56    1
    48    17    57    1
    49    18    19    1
    50    18    58    1
    51    18    59    1
    52    19    22    1
    53    19    60    1
    54    19    61    1
    55    20    21    1
    56    20    23    1
    57    20    24    1
    58    20    62    1
    59    21    63    1
    60    21    64    1
    61    22    25    2
    62    22    65    1
    63    23    69    1
    64    23    70    1
    65    23    71    1
    66    24    66    1
    67    24    67    1
    68    24    68    1
    69    25    27    1
    70    25    73    1
    71    26    28    1
    72    27    28    2
    73    27    74    1
    74    28    75    1
