@<TRIPOS>MOLECULE
IMPHY005716
 63 65 0 0 0
SMALL
GASTEIGER

@<TRIPOS>ATOM
      1 O           8.5991    0.6846    0.0000 O.2     1  UNL1       -0.4607
      2 O           9.4651    2.1846    0.0000 O.3     1  UNL1       -0.4244
      3 O           6.0010   -0.8154    0.0000 O.3     1  UNL1       -0.3443
      4 O           6.0352    4.1254    0.0000 O.2     1  UNL1       -0.2971
      5 O           4.2690   -0.8154    0.0000 O.3     1  UNL1       -0.3405
      6 O           6.0010   -2.8154    0.0000 O.3     1  UNL1       -0.3841
      7 O           4.2690   -3.8154    0.0000 O.3     1  UNL1       -0.3864
      8 O           2.5369   -2.8154    0.0000 O.3     1  UNL1       -0.3865
      9 O           2.5369    0.1846    0.0000 O.3     1  UNL1       -0.3924
     10 O          10.3312    0.6846    0.0000 O.2     1  UNL1       -0.2507
     11 C           7.7331    2.1846    0.0000 C.3     1  UNL1        0.0496
     12 C           6.8671    1.6846    0.0000 C.3     1  UNL1        0.0023
     13 C           7.5239    3.1564    0.0000 C.3     1  UNL1        0.0249
     14 C           6.1300    2.3516    0.0000 C.3     1  UNL1        0.0133
     15 C           8.5991    1.6846    0.0000 C.3     1  UNL1        0.2493
     16 C           6.5352    3.2594    0.0000 C.2     1  UNL1        0.1373
     17 C           6.8671    0.6846    0.0000 C.2     1  UNL1       -0.0058
     18 C           8.1917    3.9007    0.0000 C.3     1  UNL1       -0.0552
     19 C           6.0010    0.1846    0.0000 C.3     1  UNL1        0.0752
     20 C           7.7331    0.1846    0.0000 C.2     1  UNL1        0.0907
     21 C           5.1350   -1.3154    0.0000 C.3     1  UNL1        0.1883
     22 C           5.1350   -2.3154    0.0000 C.3     1  UNL1        0.1341
     23 C           4.2690   -2.8154    0.0000 C.3     1  UNL1        0.1141
     24 C           3.4030   -2.3154    0.0000 C.3     1  UNL1        0.1119
     25 C           3.4030   -1.3154    0.0000 C.3     1  UNL1        0.1130
     26 C          10.3312    1.6846    0.0000 C.2     1  UNL1        0.3102
     27 C           2.5369   -0.8154    0.0000 C.3     1  UNL1        0.0730
     28 C          11.1972    2.1846    0.0000 C.3     1  UNL1        0.0474
     29 C          12.0632    1.6846    0.0000 C.3     1  UNL1       -0.0367
     30 C          12.9292    2.1846    0.0000 C.3     1  UNL1       -0.0622
     31 C          12.0632    0.6846    0.0000 C.3     1  UNL1       -0.0622
     32 H           8.4201    2.6851    0.0000 H       1  UNL1        0.0386
     33 H           6.0901    1.3398    0.0000 H       1  UNL1        0.0357
     34 H           8.1231    2.9972    0.0000 H       1  UNL1        0.0380
     35 H           5.5936    2.6624    0.0000 H       1  UNL1        0.0348
     36 H           5.7646    1.8508    0.0000 H       1  UNL1        0.0348
     37 H           8.5991    2.3046    0.0000 H       1  UNL1        0.1209
     38 H           8.6532    3.4866    0.0000 H       1  UNL1        0.0237
     39 H           8.6058    4.3621    0.0000 H       1  UNL1        0.0237
     40 H           7.7303    4.3147    0.0000 H       1  UNL1        0.0237
     41 H           5.7890    0.7672    0.0000 H       1  UNL1        0.0609
     42 H           5.3905    0.0769    0.0000 H       1  UNL1        0.0609
     43 H           7.7331   -0.4354    0.0000 H       1  UNL1        0.1025
     44 H           5.1350   -0.6954    0.0000 H       1  UNL1        0.0938
     45 H           5.1350   -2.9354    0.0000 H       1  UNL1        0.0671
     46 H           3.7320   -3.1254    0.0000 H       1  UNL1        0.0648
     47 H           2.8660   -2.0054    0.0000 H       1  UNL1        0.0647
     48 H           3.4030   -0.6954    0.0000 H       1  UNL1        0.0647
     49 H           1.9264   -0.7078    0.0000 H       1  UNL1        0.0584
     50 H           2.3249   -1.3981    0.0000 H       1  UNL1        0.0584
     51 H          11.5957    2.6595    0.0000 H       1  UNL1        0.0380
     52 H          10.7987    2.6595    0.0000 H       1  UNL1        0.0380
     53 H           6.5380   -2.5054    0.0000 H       1  UNL1        0.2101
     54 H           3.7320   -4.1254    0.0000 H       1  UNL1        0.2100
     55 H           2.0000   -2.5054    0.0000 H       1  UNL1        0.2100
     56 H          12.6002    1.3746    0.0000 H       1  UNL1        0.0301
     57 H           2.0000    0.4946    0.0000 H       1  UNL1        0.2095
     58 H          13.2392    1.6476    0.0000 H       1  UNL1        0.0232
     59 H          13.4662    2.4946    0.0000 H       1  UNL1        0.0232
     60 H          12.6192    2.7215    0.0000 H       1  UNL1        0.0232
     61 H          11.4432    0.6846    0.0000 H       1  UNL1        0.0232
     62 H          12.0632    0.0646    0.0000 H       1  UNL1        0.0232
     63 H          12.6832    0.6846    0.0000 H       1  UNL1        0.0232
@<TRIPOS>BOND
     1     1    15    1
     2     1    20    1
     3    15     2    1
     4     2    26    1
     5     3    19    1
     6    21     3    1
     7     4    16    2
     8     5    21    1
     9     5    25    1
    10    22     6    1
    11     6    53    1
    12    23     7    1
    13     7    54    1
    14    24     8    1
    15     8    55    1
    16     9    27    1
    17     9    57    1
    18    10    26    2
    19    11    12    1
    20    11    13    1
    21    11    15    1
    22    11    32    1
    23    12    14    1
    24    12    17    1
    25    12    33    1
    26    13    16    1
    27    13    18    1
    28    13    34    1
    29    14    16    1
    30    14    35    1
    31    14    36    1
    32    15    37    1
    33    17    19    1
    34    17    20    2
    35    18    38    1
    36    18    39    1
    37    18    40    1
    38    19    41    1
    39    19    42    1
    40    20    43    1
    41    21    22    1
    42    21    44    1
    43    22    23    1
    44    22    45    1
    45    23    24    1
    46    23    46    1
    47    24    25    1
    48    24    47    1
    49    25    27    1
    50    25    48    1
    51    26    28    1
    52    27    49    1
    53    27    50    1
    54    28    29    1
    55    28    51    1
    56    28    52    1
    57    29    30    1
    58    29    31    1
    59    29    56    1
    60    30    58    1
    61    30    59    1
    62    30    60    1
    63    31    61    1
    64    31    62    1
    65    31    63    1
