@<TRIPOS>MOLECULE
IMPHY009731
 26 27 0 0 0
SMALL
GASTEIGER

@<TRIPOS>ATOM
      1 O           6.3306    0.0000    0.0000 O.3     1  UNL1       -0.3571
      2 O           4.5981    2.0000    0.0000 O.2     1  UNL1       -0.2942
      3 C           5.4641    0.5000    0.0000 C.3     1  UNL1        0.1505
      4 C           5.4641   -0.5000    0.0000 C.3     1  UNL1        0.0961
      5 C           4.5981   -1.0000    0.0000 C.3     1  UNL1       -0.0165
      6 C           3.7320   -0.5000    0.0000 C.3     1  UNL1       -0.0112
      7 C           4.5981    1.0000    0.0000 C.2     1  UNL1        0.1677
      8 C           3.7320    0.5000    0.0000 C.3     1  UNL1        0.0154
      9 C           5.4641    1.5000    0.0000 C.3     1  UNL1       -0.0263
     10 C           2.8660   -1.0000    0.0000 C.2     1  UNL1       -0.0761
     11 C           2.8660   -2.0000    0.0000 C.3     1  UNL1       -0.0438
     12 C           2.0000   -0.5000    0.0000 C.2     1  UNL1       -0.0994
     13 H           5.8890   -1.2362    0.0000 H       1  UNL1        0.0630
     14 H           4.1996   -1.4750    0.0000 H       1  UNL1        0.0297
     15 H           4.9966   -1.4750    0.0000 H       1  UNL1        0.0297
     16 H           3.7320   -1.1200    0.0000 H       1  UNL1        0.0350
     17 H           3.5200    1.0826    0.0000 H       1  UNL1        0.0348
     18 H           3.1215    0.3923    0.0000 H       1  UNL1        0.0348
     19 H           6.0841    1.5000    0.0000 H       1  UNL1        0.0262
     20 H           5.4641    2.1200    0.0000 H       1  UNL1        0.0262
     21 H           4.8441    1.5000    0.0000 H       1  UNL1        0.0262
     22 H           2.2460   -2.0000    0.0000 H       1  UNL1        0.0274
     23 H           2.8660   -2.6200    0.0000 H       1  UNL1        0.0274
     24 H           3.4860   -2.0000    0.0000 H       1  UNL1        0.0274
     25 H           2.0000    0.1200    0.0000 H       1  UNL1        0.0534
     26 H           1.4631   -0.8100    0.0000 H       1  UNL1        0.0534
@<TRIPOS>BOND
     1     1     3    1
     2     1     4    1
     3     2     7    2
     4     3     4    1
     5     3     7    1
     6     3     9    1
     7     4     5    1
     8     4    13    1
     9     5     6    1
    10     5    14    1
    11     5    15    1
    12     6     8    1
    13     6    10    1
    14     6    16    1
    15     7     8    1
    16     8    17    1
    17     8    18    1
    18     9    19    1
    19     9    20    1
    20     9    21    1
    21    10    11    1
    22    10    12    2
    23    11    22    1
    24    11    23    1
    25    11    24    1
    26    12    25    1
    27    12    26    1
