@<TRIPOS>MOLECULE
IMPHY005975
 89 96 0 0 0
SMALL
GASTEIGER

@<TRIPOS>ATOM
      1 O           6.5590    2.8042    0.0000 O.3     1  UNL1       -0.3578
      2 O          10.7619    2.2635    0.0000 O.3     1  UNL1       -0.3329
      3 O           4.4368    1.3225    0.0000 O.3     1  UNL1       -0.3724
      4 O           8.0438   -0.8384    0.0000 O.3     1  UNL1       -0.3505
      5 O           5.6431    2.4426    0.0000 O.3     1  UNL1       -0.3886
      6 O           9.2035    4.2148    0.0000 O.3     1  UNL1       -0.3778
      7 O           7.1737   -1.8549    0.0000 O.3     1  UNL1       -0.4573
      8 O          11.6780    3.9250    0.0000 O.2     1  UNL1       -0.4680
      9 O           9.1088    0.1393    0.0000 O.3     1  UNL1       -0.3667
     10 O           3.6339   -1.8686    0.0000 O.3     1  UNL1       -0.4602
     11 O           2.9999   -1.1789    0.0000 O.3     1  UNL1       -0.4674
     12 O           3.0200    0.5530    0.0000 O.2     1  UNL1       -0.2500
     13 O           6.3251   -3.3648    0.0000 O.2     1  UNL1       -0.2453
     14 O           4.4941   -3.3719    0.0000 O.2     1  UNL1       -0.2512
     15 C           7.3256    2.1613    0.0000 C.3     1  UNL1        0.1334
     16 C           7.1519    1.1765    0.0000 C.3     1  UNL1        0.0386
     17 C           7.4992    3.1462    0.0000 C.3     1  UNL1        0.1055
     18 C           7.1519    0.1765    0.0000 C.3     1  UNL1        0.0320
     19 C           6.2859   -0.3235    0.0000 C.3     1  UNL1        0.0458
     20 C           8.9372    2.7612    0.0000 C.3     1  UNL1        0.0316
     21 C           8.7635    1.7764    0.0000 C.3     1  UNL1        0.0955
     22 C           5.4198    0.1765    0.0000 C.3     1  UNL1        0.0206
     23 C           6.2859    1.6765    0.0000 C.3     1  UNL1        0.0902
     24 C           9.5830    0.8617    0.0000 C.3     1  UNL1       -0.0149
     25 C           5.4198    1.1765    0.0000 C.3     1  UNL1        0.0899
     26 C           4.5098   -0.3303    0.0000 C.3     1  UNL1        0.1334
     27 C          10.0781    3.7300    0.0000 C.3     1  UNL1        0.1545
     28 C           6.3019   -1.3650    0.0000 C.3     1  UNL1        0.1153
     29 C           8.0916    0.8345    0.0000 C.3     1  UNL1       -0.0538
     30 C           8.1237   -0.0327    0.0000 C.3     1  UNL1        0.1603
     31 C           7.6728    4.1310    0.0000 C.3     1  UNL1       -0.0326
     32 C           6.9530   -1.0605    0.0000 C.3     1  UNL1        0.0605
     33 C          10.9527    3.2452    0.0000 C.3     1  UNL1        0.2342
     34 C           4.5018   -1.3719    0.0000 C.3     1  UNL1        0.1246
     35 C           5.4039   -1.8927    0.0000 C.3     1  UNL1        0.0234
     36 C           3.9230    0.4718    0.0000 C.3     1  UNL1        0.0677
     37 C          10.2703    4.7053    0.0000 C.2     1  UNL1       -0.0121
     38 C           3.5099   -0.3187    0.0000 C.2     1  UNL1        0.3193
     39 C          11.2571    4.8256    0.0000 C.2     1  UNL1        0.0870
     40 C           7.1852   -2.8549    0.0000 C.2     1  UNL1        0.3348
     41 C           3.6300   -2.8686    0.0000 C.2     1  UNL1        0.3042
     42 C           2.0000   -1.1674    0.0000 C.3     1  UNL1        0.0817
     43 C           8.0570   -3.3448    0.0000 C.2     1  UNL1        0.0293
     44 C           2.7621   -3.3652    0.0000 C.3     1  UNL1        0.0332
     45 C           8.9172   -2.8348    0.0000 C.3     1  UNL1       -0.0333
     46 C           8.0686   -4.3447    0.0000 C.2     1  UNL1       -0.0774
     47 C           8.9403   -4.8347    0.0000 C.3     1  UNL1       -0.0461
     48 H           7.8132    0.7106    0.0000 H       1  UNL1        0.0364
     49 H           9.0848    3.5983    0.0000 H       1  UNL1        0.0363
     50 H           8.9112    0.9393    0.0000 H       1  UNL1        0.0627
     51 H           5.4198   -0.6735    0.0000 H       1  UNL1        0.0347
     52 H           6.6844    2.1515    0.0000 H       1  UNL1        0.0626
     53 H           9.3128    0.3037    0.0000 H       1  UNL1        0.0296
     54 H          10.2018    0.8235    0.0000 H       1  UNL1        0.0296
     55 H           5.2609    2.0115    0.0000 H       1  UNL1        0.0625
     56 H           6.3079   -1.9849    0.0000 H       1  UNL1        0.0742
     57 H           7.8795    0.2519    0.0000 H       1  UNL1        0.0237
     58 H           8.6742    0.6225    0.0000 H       1  UNL1        0.0237
     59 H           8.3036    1.4171    0.0000 H       1  UNL1        0.0237
     60 H           8.1359    0.5872    0.0000 H       1  UNL1        0.0911
     61 H           8.2834    4.0233    0.0000 H       1  UNL1        0.0258
     62 H           7.7805    4.7415    0.0000 H       1  UNL1        0.0258
     63 H           7.0623    4.2386    0.0000 H       1  UNL1        0.0258
     64 H           6.4268   -1.3884    0.0000 H       1  UNL1        0.0568
     65 H           7.1824   -1.6364    0.0000 H       1  UNL1        0.0568
     66 H          11.6961    2.8331    0.0000 H       1  UNL1        0.1090
     67 H           3.9667   -1.0588    0.0000 H       1  UNL1        0.0747
     68 H           5.0066   -2.3687    0.0000 H       1  UNL1        0.0337
     69 H           5.8049   -2.3656    0.0000 H       1  UNL1        0.0337
     70 H           3.4391    0.8593    0.0000 H       1  UNL1        0.0572
     71 H           3.4752    0.0430    0.0000 H       1  UNL1        0.0572
     72 H           5.0325    2.3349    0.0000 H       1  UNL1        0.2099
     73 H           9.8482    5.1595    0.0000 H       1  UNL1        0.0633
     74 H           9.1926    4.8347    0.0000 H       1  UNL1        0.2109
     75 H           9.5065   -0.3364    0.0000 H       1  UNL1        0.2125
     76 H          11.5577    5.3679    0.0000 H       1  UNL1        0.1022
     77 H           2.0072   -0.5474    0.0000 H       1  UNL1        0.0661
     78 H           1.3800   -1.1602    0.0000 H       1  UNL1        0.0661
     79 H           1.9928   -1.7873    0.0000 H       1  UNL1        0.0661
     80 H           2.4541   -2.8271    0.0000 H       1  UNL1        0.0342
     81 H           2.2239   -3.6732    0.0000 H       1  UNL1        0.0342
     82 H           3.0700   -3.9034    0.0000 H       1  UNL1        0.0342
     83 H           9.2334   -3.3681    0.0000 H       1  UNL1        0.0280
     84 H           9.4505   -2.5186    0.0000 H       1  UNL1        0.0280
     85 H           8.6010   -2.3015    0.0000 H       1  UNL1        0.0280
     86 H           7.5352   -4.6609    0.0000 H       1  UNL1        0.0574
     87 H           8.6365   -5.3752    0.0000 H       1  UNL1        0.0272
     88 H           9.4808   -5.1385    0.0000 H       1  UNL1        0.0272
     89 H           9.2441   -4.2942    0.0000 H       1  UNL1        0.0272
@<TRIPOS>BOND
     1    15     1    1
     2     1    17    1
     3     2    21    1
     4     2    33    1
     5     3    25    1
     6     3    36    1
     7     4    30    1
     8     4    32    1
     9    23     5    1
    10     5    72    1
    11    27     6    1
    12     6    74    1
    13    28     7    1
    14     7    40    1
    15     8    33    1
    16     8    39    1
    17    30     9    1
    18     9    75    1
    19    34    10    1
    20    10    41    1
    21    11    38    1
    22    11    42    1
    23    12    38    2
    24    13    40    2
    25    14    41    2
    26    15    16    1
    27    15    17    1
    28    15    21    1
    29    16    18    1
    30    16    23    1
    31    16    29    1
    32    17    20    1
    33    17    31    1
    34    18    19    1
    35    18    30    1
    36    18    48    1
    37    19    22    1
    38    19    28    1
    39    19    32    1
    40    20    24    1
    41    20    27    1
    42    20    49    1
    43    21    24    1
    44    21    50    1
    45    22    25    1
    46    22    26    1
    47    22    51    1
    48    23    25    1
    49    23    52    1
    50    24    53    1
    51    24    54    1
    52    25    55    1
    53    26    34    1
    54    26    36    1
    55    26    38    1
    56    27    33    1
    57    27    37    1
    58    28    35    1
    59    28    56    1
    60    29    57    1
    61    29    58    1
    62    29    59    1
    63    30    60    1
    64    31    61    1
    65    31    62    1
    66    31    63    1
    67    32    64    1
    68    32    65    1
    69    33    66    1
    70    34    35    1
    71    34    67    1
    72    35    68    1
    73    35    69    1
    74    36    70    1
    75    36    71    1
    76    37    39    2
    77    37    73    1
    78    39    76    1
    79    40    43    1
    80    41    44    1
    81    42    77    1
    82    42    78    1
    83    42    79    1
    84    43    45    1
    85    43    46    2
    86    44    80    1
    87    44    81    1
    88    44    82    1
    89    45    83    1
    90    45    84    1
    91    45    85    1
    92    46    47    1
    93    46    86    1
    94    47    87    1
    95    47    88    1
    96    47    89    1
