@<TRIPOS>MOLECULE
IMPHY006691
 50 54 0 0 0
SMALL
GASTEIGER

@<TRIPOS>ATOM
      1 O           5.9469    2.2809    0.0000 O.3     1  UNL1       -0.3935
      2 O           7.4469    1.4148    0.0000 O.3     1  UNL1       -0.4672
      3 O           7.4469   -0.3172    0.0000 O.2     1  UNL1       -0.2497
      4 N           3.3369   -0.7245    0.0000 N.3     1  UNL1       -0.2943
      5 N           4.9022    1.9866    0.0000 N.2     1  UNL1       -0.2540
      6 C           4.2620    0.5488    0.0000 C.3     1  UNL1        0.0537
      7 C           4.2620   -0.4239    0.0000 C.3     1  UNL1        0.0262
      8 C           5.9469   -0.4239    0.0000 C.3     1  UNL1        0.0059
      9 C           5.9469    0.5488    0.0000 C.3     1  UNL1        0.1358
     10 C           5.1045   -0.9103    0.0000 C.3     1  UNL1       -0.0281
     11 C           5.1045    1.0352    0.0000 C.2     1  UNL1        0.0512
     12 C           3.3369    0.8494    0.0000 C.3     1  UNL1       -0.0238
     13 C           2.7652    0.0624    0.0000 C.3     1  UNL1        0.0007
     14 C           3.5392    1.1997    0.0000 C.ar    1  UNL1       -0.0088
     15 C           4.1101   -1.4723    0.0000 C.3     1  UNL1        0.0206
     16 C           5.3422   -1.4723    0.0000 C.2     1  UNL1       -0.0552
     17 C           6.4469    1.4148    0.0000 C.3     1  UNL1        0.0658
     18 C           3.9348    2.0883    0.0000 C.ar    1  UNL1        0.0680
     19 C           6.9469    0.5488    0.0000 C.2     1  UNL1        0.3215
     20 C           2.5718    1.0980    0.0000 C.ar    1  UNL1       -0.0556
     21 C           5.8422   -2.3384    0.0000 C.2     1  UNL1       -0.0863
     22 C           3.3630    2.8753    0.0000 C.ar    1  UNL1       -0.0360
     23 C           2.0000    1.8850    0.0000 C.ar    1  UNL1       -0.0613
     24 C           2.3956    2.7736    0.0000 C.ar    1  UNL1       -0.0597
     25 C           6.8422   -2.3384    0.0000 C.3     1  UNL1       -0.0465
     26 C           8.4469    1.4148    0.0000 C.3     1  UNL1        0.0817
     27 H           3.7928   -1.1327    0.0000 H       1  UNL1        0.0475
     28 H           6.7680   -0.6437    0.0000 H       1  UNL1        0.0362
     29 H           4.7059   -1.3853    0.0000 H       1  UNL1        0.0287
     30 H           5.5030   -1.3853    0.0000 H       1  UNL1        0.0287
     31 H           3.5891    1.4158    0.0000 H       1  UNL1        0.0290
     32 H           2.8000    1.1594    0.0000 H       1  UNL1        0.0290
     33 H           2.3044    0.4773    0.0000 H       1  UNL1        0.0427
     34 H           2.3044   -0.3524    0.0000 H       1  UNL1        0.0427
     35 H           3.5767   -1.7883    0.0000 H       1  UNL1        0.0473
     36 H           4.2739   -2.0703    0.0000 H       1  UNL1        0.0473
     37 H           6.9218    1.0163    0.0000 H       1  UNL1        0.0572
     38 H           6.9218    1.8134    0.0000 H       1  UNL1        0.0572
     39 H           2.3196    0.5316    0.0000 H       1  UNL1        0.0621
     40 H           5.5322   -2.8753    0.0000 H       1  UNL1        0.0569
     41 H           3.6152    3.4417    0.0000 H       1  UNL1        0.0639
     42 H           1.3834    1.8202    0.0000 H       1  UNL1        0.0618
     43 H           6.2569    2.8178    0.0000 H       1  UNL1        0.2095
     44 H           2.0312    3.2752    0.0000 H       1  UNL1        0.0618
     45 H           6.8422   -2.9583    0.0000 H       1  UNL1        0.0272
     46 H           7.4622   -2.3384    0.0000 H       1  UNL1        0.0272
     47 H           6.8422   -1.7184    0.0000 H       1  UNL1        0.0272
     48 H           8.4469    0.7948    0.0000 H       1  UNL1        0.0661
     49 H           9.0669    1.4148    0.0000 H       1  UNL1        0.0661
     50 H           8.4469    2.0348    0.0000 H       1  UNL1        0.0661
@<TRIPOS>BOND
     1     1    17    1
     2     1    43    1
     3     2    19    1
     4     2    26    1
     5     3    19    2
     6     4     7    1
     7     4    13    1
     8     4    15    1
     9     5    11    2
    10     5    18    1
    11     6     7    1
    12     6    11    1
    13     6    12    1
    14     6    14    1
    15     7    10    1
    16     7    27    1
    17     8     9    1
    18     8    10    1
    19     8    16    1
    20     8    28    1
    21     9    11    1
    22     9    17    1
    23     9    19    1
    24    10    29    1
    25    10    30    1
    26    12    13    1
    27    12    31    1
    28    12    32    1
    29    13    33    1
    30    13    34    1
    31    14    18   ar
    32    14    20   ar
    33    15    16    1
    34    15    35    1
    35    15    36    1
    36    16    21    2
    37    17    37    1
    38    17    38    1
    39    18    22   ar
    40    20    23   ar
    41    20    39    1
    42    21    25    1
    43    21    40    1
    44    22    24   ar
    45    22    41    1
    46    23    24   ar
    47    23    42    1
    48    24    44    1
    49    25    45    1
    50    25    46    1
    51    25    47    1
    52    26    48    1
    53    26    49    1
    54    26    50    1
