@<TRIPOS>MOLECULE
IMPHY004350
 97 103 0 0 0
SMALL
GASTEIGER

@<TRIPOS>ATOM
      1 O           6.9357   -1.2764    0.0000 O.3     1  UNL1       -0.3281
      2 O           8.2960    1.4872    0.0000 O.3     1  UNL1       -0.4500
      3 O           7.5038   -1.1707    0.0000 O.3     1  UNL1       -0.4512
      4 O           9.4704   -0.4418    0.0000 O.3     1  UNL1       -0.4476
      5 O           8.4445   -2.1161    0.0000 O.3     1  UNL1       -0.4275
      6 O           4.6912    0.5212    0.0000 O.3     1  UNL1       -0.4584
      7 O           8.9032    2.9531    0.0000 O.2     1  UNL1       -0.2449
      8 O           7.0038   -3.0367    0.0000 O.2     1  UNL1       -0.2449
      9 O           9.3799   -2.1715    0.0000 O.2     1  UNL1       -0.2449
     10 O           7.6280   -3.8669    0.0000 O.2     1  UNL1       -0.2449
     11 O           3.4323    1.4872    0.0000 O.2     1  UNL1       -0.2449
     12 O           5.1680    4.8330    0.0000 O.3     1  UNL1       -0.5028
     13 O           5.7272    4.9828    0.0000 O.3     1  UNL1       -0.5028
     14 O           8.5259    5.5979    0.0000 O.3     1  UNL1       -0.5032
     15 O           6.5474    6.1280    0.0000 O.3     1  UNL1       -0.5009
     16 O           3.8851    5.4146    0.0000 O.3     1  UNL1       -0.5009
     17 O           2.4367    3.9663    0.0000 O.3     1  UNL1       -0.5032
     18 O           5.2717   -5.0367    0.0000 O.3     1  UNL1       -0.5032
     19 O           3.5396   -2.0367    0.0000 O.3     1  UNL1       -0.5032
     20 O          13.0109    0.2401    0.0000 O.3     1  UNL1       -0.5032
     21 O          12.8298   -3.2193    0.0000 O.3     1  UNL1       -0.5032
     22 O           3.5396   -4.0366    0.0000 O.3     1  UNL1       -0.5009
     23 O          11.6823   -3.7024    0.0000 O.3     1  UNL1       -0.5032
     24 O           9.4557   -6.3560    0.0000 O.3     1  UNL1       -0.5032
     25 O          13.9190   -1.5419    0.0000 O.3     1  UNL1       -0.5009
     26 O          11.3350   -5.6720    0.0000 O.3     1  UNL1       -0.5009
     27 C           8.0372    0.5212    0.0000 C.3     1  UNL1        0.1851
     28 C           7.3301   -0.1859    0.0000 C.3     1  UNL1        0.1730
     29 C           8.4718   -0.3896    0.0000 C.3     1  UNL1        0.2053
     30 C           6.3642   -0.4447    0.0000 C.3     1  UNL1        0.1371
     31 C           7.9445   -1.2500    0.0000 C.3     1  UNL1        0.2465
     32 C           5.3982   -0.1859    0.0000 C.3     1  UNL1        0.1226
     33 C           8.0372    2.4531    0.0000 C.2     1  UNL1        0.3405
     34 C           7.0038   -2.0367    0.0000 C.2     1  UNL1        0.3399
     35 C           9.9244   -1.3328    0.0000 C.2     1  UNL1        0.3400
     36 C           7.3301    3.1602    0.0000 C.ar    1  UNL1        0.0740
     37 C           8.2709   -3.1009    0.0000 C.2     1  UNL1        0.3417
     38 C           4.4323    1.4872    0.0000 C.2     1  UNL1        0.3401
     39 C           6.3642    3.4190    0.0000 C.ar    1  UNL1        0.0458
     40 C           4.6912    2.4531    0.0000 C.ar    1  UNL1        0.0740
     41 C           6.1377   -2.5366    0.0000 C.ar    1  UNL1        0.0661
     42 C           5.3982    3.1602    0.0000 C.ar    1  UNL1        0.0458
     43 C          10.9231   -1.3851    0.0000 C.ar    1  UNL1        0.0661
     44 C           9.0370   -3.7436    0.0000 C.ar    1  UNL1        0.0662
     45 C           8.0779    3.8853    0.0000 C.ar    1  UNL1       -0.0017
     46 C           6.0791    4.4209    0.0000 C.ar    1  UNL1        0.1708
     47 C           5.1442    4.1704    0.0000 C.ar    1  UNL1        0.1708
     48 C           3.6810    2.7072    0.0000 C.ar    1  UNL1       -0.0017
     49 C           7.8161    4.8935    0.0000 C.ar    1  UNL1        0.1628
     50 C           5.2716   -2.0366    0.0000 C.ar    1  UNL1       -0.0023
     51 C           6.1377   -3.5367    0.0000 C.ar    1  UNL1       -0.0023
     52 C           6.8100    5.1631    0.0000 C.ar    1  UNL1        0.2012
     53 C          11.3771   -2.2760    0.0000 C.ar    1  UNL1       -0.0023
     54 C          11.4677   -0.5464    0.0000 C.ar    1  UNL1       -0.0023
     55 C           8.8633   -4.7284    0.0000 C.ar    1  UNL1       -0.0023
     56 C           9.9766   -3.4016    0.0000 C.ar    1  UNL1       -0.0023
     57 C           4.1402    4.4477    0.0000 C.ar    1  UNL1        0.2012
     58 C           3.4036    3.7112    0.0000 C.ar    1  UNL1        0.1628
     59 C           5.2717   -4.0367    0.0000 C.ar    1  UNL1        0.1628
     60 C           4.4056   -2.5366    0.0000 C.ar    1  UNL1        0.1628
     61 C          12.4663   -0.5986    0.0000 C.ar    1  UNL1        0.1628
     62 C          12.3758   -2.3283    0.0000 C.ar    1  UNL1        0.1628
     63 C           4.4056   -3.5366    0.0000 C.ar    1  UNL1        0.2006
     64 C          10.7426   -4.0444    0.0000 C.ar    1  UNL1        0.1628
     65 C           9.6294   -5.3712    0.0000 C.ar    1  UNL1        0.1628
     66 C          12.9203   -1.4896    0.0000 C.ar    1  UNL1        0.2006
     67 C          10.5690   -5.0292    0.0000 C.ar    1  UNL1        0.2006
     68 H           7.3011    0.9462    0.0000 H       1  UNL1        0.0813
     69 H           7.9214   -0.3723    0.0000 H       1  UNL1        0.0801
     70 H           8.8162    0.1260    0.0000 H       1  UNL1        0.0837
     71 H           5.8736   -1.1388    0.0000 H       1  UNL1        0.0670
     72 H           7.6416   -1.7910    0.0000 H       1  UNL1        0.1098
     73 H           4.8363   -0.4479    0.0000 H       1  UNL1        0.0725
     74 H           5.7082    0.3511    0.0000 H       1  UNL1        0.0725
     75 H           8.6749    3.7179    0.0000 H       1  UNL1        0.0664
     76 H           3.2477    2.2637    0.0000 H       1  UNL1        0.0664
     77 H           5.2716   -1.4166    0.0000 H       1  UNL1        0.0663
     78 H           6.6747   -3.8467    0.0000 H       1  UNL1        0.0663
     79 H          11.0395   -2.7960    0.0000 H       1  UNL1        0.0663
     80 H          11.1861    0.0060    0.0000 H       1  UNL1        0.0663
     81 H           8.2807   -4.9405    0.0000 H       1  UNL1        0.0663
     82 H          10.0843   -2.7910    0.0000 H       1  UNL1        0.0663
     83 H           4.8995    5.3918    0.0000 H       1  UNL1        0.2923
     84 H           5.6803    5.6011    0.0000 H       1  UNL1        0.2923
     85 H           9.1242    5.4351    0.0000 H       1  UNL1        0.2923
     86 H           6.9841    6.5681    0.0000 H       1  UNL1        0.2924
     87 H           3.2868    5.5774    0.0000 H       1  UNL1        0.2924
     88 H           2.0000    3.5262    0.0000 H       1  UNL1        0.2923
     89 H           5.8087   -5.3467    0.0000 H       1  UNL1        0.2923
     90 H           3.0027   -2.3467    0.0000 H       1  UNL1        0.2923
     91 H          12.7294    0.7925    0.0000 H       1  UNL1        0.2923
     92 H          13.4490   -3.2517    0.0000 H       1  UNL1        0.2923
     93 H           3.5396   -4.6566    0.0000 H       1  UNL1        0.2924
     94 H          12.1573   -4.1009    0.0000 H       1  UNL1        0.2923
     95 H           8.8731   -6.5681    0.0000 H       1  UNL1        0.2923
     96 H          14.2566   -1.0219    0.0000 H       1  UNL1        0.2924
     97 H          11.2274   -6.2826    0.0000 H       1  UNL1        0.2924
@<TRIPOS>BOND
     1     1    30    1
     2     1    31    1
     3     2    27    1
     4     2    33    1
     5    28     3    1
     6     3    34    1
     7    29     4    1
     8     4    35    1
     9    31     5    1
    10     5    37    1
    11     6    32    1
    12     6    38    1
    13     7    33    2
    14     8    34    2
    15     9    35    2
    16    10    37    2
    17    11    38    2
    18    12    46    1
    19    12    83    1
    20    13    47    1
    21    13    84    1
    22    14    49    1
    23    14    85    1
    24    15    52    1
    25    15    86    1
    26    16    57    1
    27    16    87    1
    28    17    58    1
    29    17    88    1
    30    18    59    1
    31    18    89    1
    32    19    60    1
    33    19    90    1
    34    20    61    1
    35    20    91    1
    36    21    62    1
    37    21    92    1
    38    22    63    1
    39    22    93    1
    40    23    64    1
    41    23    94    1
    42    24    65    1
    43    24    95    1
    44    25    66    1
    45    25    96    1
    46    26    67    1
    47    26    97    1
    48    27    28    1
    49    27    29    1
    50    27    68    1
    51    28    30    1
    52    28    69    1
    53    29    31    1
    54    29    70    1
    55    30    32    1
    56    30    71    1
    57    31    72    1
    58    32    73    1
    59    32    74    1
    60    33    36    1
    61    34    41    1
    62    35    43    1
    63    36    39   ar
    64    36    45   ar
    65    37    44    1
    66    38    40    1
    67    39    42    1
    68    39    46   ar
    69    40    42   ar
    70    40    48   ar
    71    41    50   ar
    72    41    51   ar
    73    42    47   ar
    74    43    53   ar
    75    43    54   ar
    76    44    55   ar
    77    44    56   ar
    78    45    49   ar
    79    45    75    1
    80    46    52   ar
    81    47    57   ar
    82    48    58   ar
    83    48    76    1
    84    49    52   ar
    85    50    60   ar
    86    50    77    1
    87    51    59   ar
    88    51    78    1
    89    53    62   ar
    90    53    79    1
    91    54    61   ar
    92    54    80    1
    93    55    65   ar
    94    55    81    1
    95    56    64   ar
    96    56    82    1
    97    57    58   ar
    98    59    63   ar
    99    60    63   ar
   100    61    66   ar
   101    62    66   ar
   102    64    67   ar
   103    65    67   ar
