@<TRIPOS>MOLECULE
IMPHY003062
 84 88 0 0 0
SMALL
GASTEIGER

@<TRIPOS>ATOM
      1 O          10.5657   -3.6276    0.0000 O.3     1  UNL1       -0.3868
      2 O           8.7878   -3.6171    0.0000 O.3     1  UNL1       -0.3946
      3 O          14.1263   -0.7883    0.0000 O.3     1  UNL1       -0.4526
      4 O           8.7878    0.4312    0.0000 O.2     1  UNL1       -0.2739
      5 O          14.1263   -2.3977    0.0000 O.3     1  UNL1       -0.4526
      6 O           2.9543   -3.1624    0.0000 O.co2   1  UNL1       -0.7854
      7 O           8.8568    2.4615    0.0000 O.3     1  UNL1       -0.4913
      8 O          12.3207    2.4214    0.0000 O.3     1  UNL1       -0.4913
      9 O          10.6003    3.4414    0.0000 O.3     1  UNL1       -0.4885
     10 O           6.1801   -2.0588    0.0000 O.2     1  UNL1       -0.2509
     11 N           3.3646   -2.2504    0.0000 N.3     1  UNL1       -0.3671
     12 N           7.9160   -1.0655    0.0000 N.am    1  UNL1       -0.2329
     13 N           5.3198   -0.5555    0.0000 N.am    1  UNL1       -0.2705
     14 N           7.0519   -0.5622    0.0000 N.am    1  UNL1       -0.2179
     15 C           9.6480   -1.0722    0.0000 C.3     1  UNL1        0.0553
     16 C           9.6480   -2.1138    0.0000 C.3     1  UNL1        0.0243
     17 C          10.5541   -0.5583    0.0000 C.3     1  UNL1        0.0215
     18 C          10.5541   -2.6276    0.0000 C.3     1  UNL1        0.0862
     19 C          11.4480   -1.0930    0.0000 C.ar    1  UNL1       -0.0299
     20 C          11.4480   -2.0930    0.0000 C.ar    1  UNL1       -0.0113
     21 C           8.7839   -2.6171    0.0000 C.3     1  UNL1        0.0504
     22 C          10.5657    0.4416    0.0000 C.ar    1  UNL1       -0.0321
     23 C           8.7839   -0.5688    0.0000 C.2     1  UNL1        0.2335
     24 C          12.3141   -0.5930    0.0000 C.ar    1  UNL1       -0.0120
     25 C          12.3141   -2.5930    0.0000 C.ar    1  UNL1       -0.0102
     26 C           4.3435   -2.0463    0.0000 C.3     1  UNL1        0.0437
     27 C           2.8680   -1.3824    0.0000 C.3     1  UNL1        0.0255
     28 C          13.1801   -1.0930    0.0000 C.ar    1  UNL1        0.1665
     29 C          13.1801   -2.0930    0.0000 C.ar    1  UNL1        0.1666
     30 C           4.4519   -1.0522    0.0000 C.2     1  UNL1        0.0286
     31 C          11.4374    0.9316    0.0000 C.ar    1  UNL1       -0.0123
     32 C           9.7055    0.9516    0.0000 C.ar    1  UNL1       -0.0123
     33 C           3.5399   -0.6419    0.0000 C.2     1  UNL1       -0.0463
     34 C           4.5477   -3.0252    0.0000 C.3     1  UNL1       -0.0423
     35 C           5.3377   -2.1546    0.0000 C.3     1  UNL1       -0.0423
     36 C           2.0000   -1.8791    0.0000 C.3     1  UNL1       -0.0440
     37 C           2.1274   -0.7105    0.0000 C.3     1  UNL1       -0.0440
     38 C           9.7170    1.9515    0.0000 C.ar    1  UNL1        0.1654
     39 C          11.4490    1.9315    0.0000 C.ar    1  UNL1        0.1654
     40 C          14.7099   -1.5930    0.0000 C.3     1  UNL1        0.2332
     41 C          10.5888    2.4415    0.0000 C.ar    1  UNL1        0.2035
     42 C           6.1840   -1.0588    0.0000 C.2     1  UNL1        0.3200
     43 C           8.8684    3.4614    0.0000 C.3     1  UNL1        0.0790
     44 C          13.1809    1.9115    0.0000 C.3     1  UNL1        0.0790
     45 C          11.4721    3.9314    0.0000 C.3     1  UNL1        0.0791
     46 H           9.6516   -0.4522    0.0000 H       1  UNL1        0.0408
     47 H           9.1105   -1.8048    0.0000 H       1  UNL1        0.0359
     48 H          10.0202   -0.2432    0.0000 H       1  UNL1        0.0405
     49 H          10.0202   -2.9428    0.0000 H       1  UNL1        0.0647
     50 H           8.5696   -2.0354    0.0000 H       1  UNL1        0.0561
     51 H           8.1738   -2.7272    0.0000 H       1  UNL1        0.0561
     52 H          12.3141    0.0270    0.0000 H       1  UNL1        0.0658
     53 H          12.3141   -3.2130    0.0000 H       1  UNL1        0.0659
     54 H          11.1061   -3.9314    0.0000 H       1  UNL1        0.2102
     55 H           3.4134   -0.0349    0.0000 H       1  UNL1        0.0606
     56 H          11.9707    0.6154    0.0000 H       1  UNL1        0.0658
     57 H           9.1650    0.6478    0.0000 H       1  UNL1        0.0658
     58 H           7.9136   -1.6855    0.0000 H       1  UNL1        0.1728
     59 H           5.2705   -2.7710    0.0000 H       1  UNL1        0.0251
     60 H           5.9540   -2.2218    0.0000 H       1  UNL1        0.0251
     61 H           5.4048   -1.5383    0.0000 H       1  UNL1        0.0251
     62 H           3.9407   -3.1518    0.0000 H       1  UNL1        0.0251
     63 H           4.6742   -3.6321    0.0000 H       1  UNL1        0.0251
     64 H           5.1546   -2.8986    0.0000 H       1  UNL1        0.0251
     65 H           2.5440   -0.2513    0.0000 H       1  UNL1        0.0250
     66 H           1.6682   -0.2938    0.0000 H       1  UNL1        0.0250
     67 H           1.7108   -1.1696    0.0000 H       1  UNL1        0.0250
     68 H           1.6921   -1.3410    0.0000 H       1  UNL1        0.0250
     69 H           1.4619   -2.1870    0.0000 H       1  UNL1        0.0250
     70 H           2.3079   -2.4172    0.0000 H       1  UNL1        0.0250
     71 H           8.2520   -3.9292    0.0000 H       1  UNL1        0.2094
     72 H           5.3222    0.0645    0.0000 H       1  UNL1        0.1562
     73 H           7.0543    0.0578    0.0000 H       1  UNL1        0.1744
     74 H          15.1708   -2.0077    0.0000 H       1  UNL1        0.1166
     75 H          15.1708   -1.1783    0.0000 H       1  UNL1        0.1166
     76 H           9.4884    3.4543    0.0000 H       1  UNL1        0.0660
     77 H           8.8756    4.0814    0.0000 H       1  UNL1        0.0660
     78 H           8.2484    3.4686    0.0000 H       1  UNL1        0.0660
     79 H          12.8647    1.3782    0.0000 H       1  UNL1        0.0660
     80 H          13.7142    1.5953    0.0000 H       1  UNL1        0.0660
     81 H          13.4971    2.4448    0.0000 H       1  UNL1        0.0660
     82 H          11.7759    3.3909    0.0000 H       1  UNL1        0.0660
     83 H          12.0126    4.2351    0.0000 H       1  UNL1        0.0660
     84 H          11.1683    4.4718    0.0000 H       1  UNL1        0.0660
@<TRIPOS>UNITY_ATOM_ATTR
6 1
charge -1
@<TRIPOS>BOND
     1    18     1    1
     2     1    54    1
     3     2    21    1
     4     2    71    1
     5     3    28    1
     6     3    40    1
     7     4    23    2
     8     5    29    1
     9     5    40    1
    10     6    11    1
    11     7    38    1
    12     7    43    1
    13     8    39    1
    14     8    44    1
    15     9    41    1
    16     9    45    1
    17    10    42    2
    18    11    26    1
    19    11    27    1
    20    12    14    1
    21    12    23   am
    22    12    58    1
    23    13    30    1
    24    13    42   am
    25    13    72    1
    26    14    42   am
    27    14    73    1
    28    15    16    1
    29    15    17    1
    30    15    23    1
    31    15    46    1
    32    16    18    1
    33    16    21    1
    34    16    47    1
    35    17    19    1
    36    17    22    1
    37    17    48    1
    38    18    20    1
    39    18    49    1
    40    19    20   ar
    41    19    24   ar
    42    20    25   ar
    43    21    50    1
    44    21    51    1
    45    22    31   ar
    46    22    32   ar
    47    24    28   ar
    48    24    52    1
    49    25    29   ar
    50    25    53    1
    51    26    30    1
    52    26    34    1
    53    26    35    1
    54    27    33    1
    55    27    36    1
    56    27    37    1
    57    28    29   ar
    58    30    33    2
    59    31    39   ar
    60    31    56    1
    61    32    38   ar
    62    32    57    1
    63    33    55    1
    64    34    62    1
    65    34    63    1
    66    34    64    1
    67    35    59    1
    68    35    60    1
    69    35    61    1
    70    36    68    1
    71    36    69    1
    72    36    70    1
    73    37    65    1
    74    37    66    1
    75    37    67    1
    76    38    41   ar
    77    39    41   ar
    78    40    74    1
    79    40    75    1
    80    43    76    1
    81    43    77    1
    82    43    78    1
    83    44    79    1
    84    44    80    1
    85    44    81    1
    86    45    82    1
    87    45    83    1
    88    45    84    1
