@<TRIPOS>MOLECULE
IMPHY016896
 37 38 0 0 0
SMALL
GASTEIGER

@<TRIPOS>ATOM
      1 C           5.4641   -0.0000    0.0000 C.3     1  UNL1        0.0100
      2 C           6.3580   -0.5347    0.0000 C.3     1  UNL1       -0.0313
      3 C           5.4641    1.0000    0.0000 C.2     1  UNL1       -0.0632
      4 C           7.2641   -0.0208    0.0000 C.3     1  UNL1       -0.0491
      5 C           6.3580    1.5346    0.0000 C.3     1  UNL1       -0.0309
      6 C           7.2641    1.0208    0.0000 C.3     1  UNL1       -0.0491
      7 C           4.5981   -0.5000    0.0000 C.2     1  UNL1       -0.0702
      8 C           5.4641   -1.0000    0.0000 C.3     1  UNL1       -0.0521
      9 C           6.3465   -1.5346    0.0000 C.3     1  UNL1       -0.0613
     10 C           4.5981    1.5000    0.0000 C.2     1  UNL1       -0.0796
     11 C           3.7320   -0.0000    0.0000 C.2     1  UNL1       -0.0444
     12 C           3.7320    1.0000    0.0000 C.3     1  UNL1       -0.0092
     13 C           2.8660   -0.5000    0.0000 C.2     1  UNL1       -0.0543
     14 C           2.0000   -0.0000    0.0000 C.3     1  UNL1       -0.0400
     15 C           2.8660   -1.5000    0.0000 C.2     1  UNL1       -0.0955
     16 H           6.8920   -0.8499    0.0000 H       1  UNL1        0.0309
     17 H           7.4732   -0.6045    0.0000 H       1  UNL1        0.0268
     18 H           7.8750    0.0852    0.0000 H       1  UNL1        0.0268
     19 H           6.7517    2.0136    0.0000 H       1  UNL1        0.0310
     20 H           5.9534    2.0044    0.0000 H       1  UNL1        0.0310
     21 H           7.8750    0.9147    0.0000 H       1  UNL1        0.0268
     22 H           7.4732    1.6045    0.0000 H       1  UNL1        0.0268
     23 H           4.5981   -1.1200    0.0000 H       1  UNL1        0.0584
     24 H           4.8441   -1.0000    0.0000 H       1  UNL1        0.0241
     25 H           5.4641   -1.6200    0.0000 H       1  UNL1        0.0241
     26 H           6.0841   -1.0000    0.0000 H       1  UNL1        0.0241
     27 H           5.7265   -1.5275    0.0000 H       1  UNL1        0.0233
     28 H           6.3393   -2.1546    0.0000 H       1  UNL1        0.0233
     29 H           6.9664   -1.5418    0.0000 H       1  UNL1        0.0233
     30 H           4.5981    2.1200    0.0000 H       1  UNL1        0.0575
     31 H           3.5200    1.5826    0.0000 H       1  UNL1        0.0356
     32 H           3.1215    0.8923    0.0000 H       1  UNL1        0.0356
     33 H           2.3100    0.5369    0.0000 H       1  UNL1        0.0277
     34 H           1.4631    0.3100    0.0000 H       1  UNL1        0.0277
     35 H           1.6900   -0.5370    0.0000 H       1  UNL1        0.0277
     36 H           2.3291   -1.8100    0.0000 H       1  UNL1        0.0537
     37 H           3.4030   -1.8100    0.0000 H       1  UNL1        0.0537
@<TRIPOS>BOND
     1     1     2    1
     2     1     3    1
     3     1     7    1
     4     1     8    1
     5     2     4    1
     6     2     9    1
     7     2    16    1
     8     3     5    1
     9     3    10    2
    10     4     6    1
    11     4    17    1
    12     4    18    1
    13     5     6    1
    14     5    19    1
    15     5    20    1
    16     6    21    1
    17     6    22    1
    18     7    11    2
    19     7    23    1
    20     8    24    1
    21     8    25    1
    22     8    26    1
    23     9    27    1
    24     9    28    1
    25     9    29    1
    26    10    12    1
    27    10    30    1
    28    11    12    1
    29    11    13    1
    30    12    31    1
    31    12    32    1
    32    13    14    1
    33    13    15    2
    34    14    33    1
    35    14    34    1
    36    14    35    1
    37    15    36    1
    38    15    37    1
