@<TRIPOS>MOLECULE
IMPHY005134
 25 25 0 0 0
SMALL
GASTEIGER

@<TRIPOS>ATOM
      1 O           4.2690    2.3100    0.0000 O.3     1  UNL1       -0.4915
      2 O           2.5369    1.3100    0.0000 O.3     1  UNL1       -0.5033
      3 N           6.8671   -2.1900    0.0000 N.3     1  UNL1       -0.3297
      4 C           6.0010   -0.6900    0.0000 C.3     1  UNL1       -0.0152
      5 C           5.1350   -0.1900    0.0000 C.ar    1  UNL1       -0.0425
      6 C           6.0010   -1.6900    0.0000 C.3     1  UNL1       -0.0029
      7 C           5.1350    0.8100    0.0000 C.ar    1  UNL1       -0.0131
      8 C           4.2690   -0.6900    0.0000 C.ar    1  UNL1       -0.0549
      9 C           4.2690    1.3100    0.0000 C.ar    1  UNL1        0.1615
     10 C           3.4030    0.8100    0.0000 C.ar    1  UNL1        0.1585
     11 C           3.4030   -0.1900    0.0000 C.ar    1  UNL1       -0.0163
     12 C           5.1350    2.8100    0.0000 C.3     1  UNL1        0.0790
     13 H           6.6116   -0.7977    0.0000 H       1  UNL1        0.0325
     14 H           6.2131   -0.1074    0.0000 H       1  UNL1        0.0325
     15 H           5.3905   -1.5823    0.0000 H       1  UNL1        0.0425
     16 H           5.7890   -2.2726    0.0000 H       1  UNL1        0.0425
     17 H           5.6720    1.1200    0.0000 H       1  UNL1        0.0658
     18 H           4.2690   -1.3100    0.0000 H       1  UNL1        0.0621
     19 H           2.8660   -0.5000    0.0000 H       1  UNL1        0.0655
     20 H           6.8671   -2.8100    0.0000 H       1  UNL1        0.1182
     21 H           7.4040   -1.8800    0.0000 H       1  UNL1        0.1182
     22 H           2.0000    1.0000    0.0000 H       1  UNL1        0.2923
     23 H           5.4450    2.2731    0.0000 H       1  UNL1        0.0660
     24 H           5.6720    3.1200    0.0000 H       1  UNL1        0.0660
     25 H           4.8250    3.3469    0.0000 H       1  UNL1        0.0660
@<TRIPOS>BOND
     1     1     9    1
     2     1    12    1
     3     2    10    1
     4     2    22    1
     5     3     6    1
     6     3    20    1
     7     3    21    1
     8     4     5    1
     9     4     6    1
    10     4    13    1
    11     4    14    1
    12     5     7   ar
    13     5     8   ar
    14     6    15    1
    15     6    16    1
    16     7     9   ar
    17     7    17    1
    18     8    11   ar
    19     8    18    1
    20     9    10   ar
    21    10    11   ar
    22    11    19    1
    23    12    23    1
    24    12    24    1
    25    12    25    1
