@<TRIPOS>MOLECULE
IMPHY006076
 53 57 0 0 0
SMALL
GASTEIGER

@<TRIPOS>ATOM
      1 O           4.9386    0.9165    0.0000 O.3     1  UNL1       -0.3455
      2 O           3.7700   -1.9492    0.0000 O.3     1  UNL1       -0.4607
      3 O           6.0180    1.9861    0.0000 O.3     1  UNL1       -0.3623
      4 O           4.6520    2.6201    0.0000 O.3     1  UNL1       -0.3862
      5 O           7.3024    1.2050    0.0000 O.3     1  UNL1       -0.3834
      6 O           2.0000   -1.9250    0.0000 O.2     1  UNL1       -0.2508
      7 O           9.1371    0.2208    0.0000 O.2     1  UNL1       -0.2899
      8 C           4.6520   -0.3799    0.0000 C.3     1  UNL1        0.0432
      9 C           5.5180    0.1201    0.0000 C.3     1  UNL1        0.0356
     10 C           6.4278   -0.3679    0.0000 C.3     1  UNL1        0.0162
     11 C           3.7860    0.1201    0.0000 C.3     1  UNL1       -0.0143
     12 C           5.5180    1.1201    0.0000 C.3     1  UNL1        0.1981
     13 C           4.6681   -1.4214    0.0000 C.3     1  UNL1        0.1120
     14 C           6.4521   -1.4000    0.0000 C.3     1  UNL1       -0.0078
     15 C           4.5386    0.2237    0.0000 C.3     1  UNL1        0.0607
     16 C           3.7860    1.1201    0.0000 C.3     1  UNL1       -0.0087
     17 C           4.6520    1.6201    0.0000 C.3     1  UNL1        0.1119
     18 C           5.5663   -1.9303    0.0000 C.3     1  UNL1       -0.0079
     19 C           7.3375    0.2056    0.0000 C.3     1  UNL1        0.1233
     20 C           2.8760   -0.3868    0.0000 C.3     1  UNL1        0.0488
     21 C           6.4043    0.6318    0.0000 C.3     1  UNL1       -0.0558
     22 C           7.3878   -1.9302    0.0000 C.2     1  UNL1       -0.0654
     23 C           2.9200    1.6201    0.0000 C.3     1  UNL1       -0.0596
     24 C           2.8680   -1.4284    0.0000 C.2     1  UNL1        0.3077
     25 C           8.2851   -0.3027    0.0000 C.2     1  UNL1        0.1848
     26 C           8.3104   -1.3778    0.0000 C.2     1  UNL1       -0.0173
     27 C           7.3998   -2.9301    0.0000 C.3     1  UNL1       -0.0431
     28 H           5.9430   -0.6160    0.0000 H       1  UNL1        0.0367
     29 H           3.0499    0.5451    0.0000 H       1  UNL1        0.0317
     30 H           4.6748   -2.2714    0.0000 H       1  UNL1        0.0740
     31 H           6.4623   -2.2500    0.0000 H       1  UNL1        0.0353
     32 H           4.1115    0.6731    0.0000 H       1  UNL1        0.0568
     33 H           3.9866   -0.0587    0.0000 H       1  UNL1        0.0568
     34 H           3.7860    1.7401    0.0000 H       1  UNL1        0.0328
     35 H           5.1889    1.9301    0.0000 H       1  UNL1        0.0650
     36 H           5.1729   -2.4095    0.0000 H       1  UNL1        0.0307
     37 H           5.9711   -2.4000    0.0000 H       1  UNL1        0.0307
     38 H           7.8638    0.5333    0.0000 H       1  UNL1        0.0682
     39 H           2.6714    0.1985    0.0000 H       1  UNL1        0.0380
     40 H           2.2643   -0.4881    0.0000 H       1  UNL1        0.0380
     41 H           7.0241    0.6464    0.0000 H       1  UNL1        0.0236
     42 H           6.3897    1.2516    0.0000 H       1  UNL1        0.0236
     43 H           5.7844    0.6172    0.0000 H       1  UNL1        0.0236
     44 H           3.2300    2.1570    0.0000 H       1  UNL1        0.0233
     45 H           2.3830    1.9301    0.0000 H       1  UNL1        0.0233
     46 H           2.6100    1.0831    0.0000 H       1  UNL1        0.0233
     47 H           5.7080    2.5230    0.0000 H       1  UNL1        0.2128
     48 H           4.1151    2.9301    0.0000 H       1  UNL1        0.2100
     49 H           8.8534   -1.6772    0.0000 H       1  UNL1        0.0653
     50 H           7.8281    1.5337    0.0000 H       1  UNL1        0.2104
     51 H           6.7798   -2.9375    0.0000 H       1  UNL1        0.0275
     52 H           7.4072   -3.5500    0.0000 H       1  UNL1        0.0275
     53 H           8.0197   -2.9226    0.0000 H       1  UNL1        0.0275
@<TRIPOS>BOND
     1     1    12    1
     2     1    15    1
     3     2    13    1
     4     2    24    1
     5    12     3    1
     6     3    47    1
     7    17     4    1
     8     4    48    1
     9    19     5    1
    10     5    50    1
    11     6    24    2
    12     7    25    2
    13     8     9    1
    14     8    11    1
    15     8    13    1
    16     8    15    1
    17     9    10    1
    18     9    12    1
    19     9    28    1
    20    10    14    1
    21    10    19    1
    22    10    21    1
    23    11    16    1
    24    11    20    1
    25    11    29    1
    26    12    17    1
    27    13    18    1
    28    13    30    1
    29    14    18    1
    30    14    22    1
    31    14    31    1
    32    15    32    1
    33    15    33    1
    34    16    17    1
    35    16    23    1
    36    16    34    1
    37    17    35    1
    38    18    36    1
    39    18    37    1
    40    19    25    1
    41    19    38    1
    42    20    24    1
    43    20    39    1
    44    20    40    1
    45    21    41    1
    46    21    42    1
    47    21    43    1
    48    22    26    2
    49    22    27    1
    50    23    44    1
    51    23    45    1
    52    23    46    1
    53    25    26    1
    54    26    49    1
    55    27    51    1
    56    27    52    1
    57    27    53    1
