@<TRIPOS>MOLECULE
IMPHY002824
 29 30 0 0 0
SMALL
GASTEIGER

@<TRIPOS>ATOM
      1 N           3.5723    1.0528    0.0000 N.3     1  UNL1       -0.2994
      2 N           7.0648   -1.3199    0.0000 N.3     1  UNL1       -0.3271
      3 C           4.0501   -0.8958    0.0000 C.3     1  UNL1        0.0118
      4 C           4.3089    0.0701    0.0000 C.3     1  UNL1        0.0118
      5 C           5.3217   -1.6904    0.0000 C.3     1  UNL1       -0.0220
      6 C           5.7405   -0.1275    0.0000 C.3     1  UNL1       -0.0220
      7 C           6.0989   -1.0611    0.0000 C.3     1  UNL1        0.0077
      8 C           2.2756   -0.2410    0.0000 C.3     1  UNL1       -0.0372
      9 C           2.8290   -1.7614    0.0000 C.3     1  UNL1       -0.0372
     10 C           2.0000   -1.2022    0.0000 C.3     1  UNL1       -0.0502
     11 C           3.0723    1.9188    0.0000 C.3     1  UNL1       -0.0122
     12 H           4.5524   -0.5323    0.0000 H       1  UNL1        0.0463
     13 H           4.3134   -0.5498    0.0000 H       1  UNL1        0.0463
     14 H           4.9372   -2.1768    0.0000 H       1  UNL1        0.0295
     15 H           5.7627   -2.1263    0.0000 H       1  UNL1        0.0295
     16 H           6.3483   -0.0052    0.0000 H       1  UNL1        0.0295
     17 H           5.7215    0.4922    0.0000 H       1  UNL1        0.0295
     18 H           6.5138   -0.6003    0.0000 H       1  UNL1        0.0459
     19 H           2.2706    0.3790    0.0000 H       1  UNL1        0.0280
     20 H           1.6613   -0.1572    0.0000 H       1  UNL1        0.0280
     21 H           2.4232   -2.2302    0.0000 H       1  UNL1        0.0280
     22 H           3.2457   -2.2206    0.0000 H       1  UNL1        0.0280
     23 H           1.4252   -0.9700    0.0000 H       1  UNL1        0.0266
     24 H           1.7089   -1.7497    0.0000 H       1  UNL1        0.0266
     25 H           3.6092    2.2288    0.0000 H       1  UNL1        0.0391
     26 H           2.7623    2.4557    0.0000 H       1  UNL1        0.0391
     27 H           2.5353    1.6088    0.0000 H       1  UNL1        0.0391
     28 H           7.2253   -1.9188    0.0000 H       1  UNL1        0.1185
     29 H           7.5032   -0.8815    0.0000 H       1  UNL1        0.1185
@<TRIPOS>BOND
     1     1     3    1
     2     1     4    1
     3     1    11    1
     4     2     7    1
     5     2    28    1
     6     2    29    1
     7     3     5    1
     8     3     9    1
     9     3    12    1
    10     4     6    1
    11     4     8    1
    12     4    13    1
    13     5     7    1
    14     5    14    1
    15     5    15    1
    16     6     7    1
    17     6    16    1
    18     6    17    1
    19     7    18    1
    20     8    10    1
    21     8    19    1
    22     8    20    1
    23     9    10    1
    24     9    21    1
    25     9    22    1
    26    10    23    1
    27    10    24    1
    28    11    25    1
    29    11    26    1
    30    11    27    1
