@<TRIPOS>MOLECULE
IMPHY004890
 56 58 0 0 0
SMALL
GASTEIGER

@<TRIPOS>ATOM
      1 O           3.9061    0.5484    0.0000 O.3     1  UNL1       -0.4811
      2 O           7.4260    0.5484    0.0000 O.2     1  UNL1       -0.4214
      3 O           5.6660   -2.4863    0.0000 O.3     1  UNL1       -0.5053
      4 O           9.1962    0.5379    0.0000 O.2     1  UNL1       -0.2449
      5 C           5.6660    1.5137    0.0000 C.3     1  UNL1        0.0148
      6 C           5.6660    0.5137    0.0000 C.ar    1  UNL1        0.0473
      7 C           4.8000    0.0137    0.0000 C.ar    1  UNL1        0.1399
      8 C           6.5320    0.0137    0.0000 C.ar    1  UNL1        0.1501
      9 C           3.0000    0.0346    0.0000 C.3     1  UNL1        0.1235
     10 C           4.8000   -0.9863    0.0000 C.ar    1  UNL1        0.0590
     11 C           6.5320   -0.9863    0.0000 C.ar    1  UNL1        0.0604
     12 C           9.1962   -1.5104    0.0000 C.3     1  UNL1        0.0146
     13 C           5.6660   -1.4863    0.0000 C.ar    1  UNL1        0.1381
     14 C           8.3321   -1.0071    0.0000 C.ar    1  UNL1        0.0471
     15 C           6.6660    1.5137    0.0000 C.3     1  UNL1       -0.0521
     16 C           4.6660    1.5137    0.0000 C.3     1  UNL1       -0.0521
     17 C           7.4260   -1.5209    0.0000 C.ar    1  UNL1       -0.0367
     18 C           3.0000   -1.0071    0.0000 C.2     1  UNL1       -0.0408
     19 C           3.9061   -1.5209    0.0000 C.2     1  UNL1       -0.0478
     20 C           5.6660    2.5137    0.0000 C.2     1  UNL1       -0.0809
     21 C           2.0000    0.0384    0.0000 C.3     1  UNL1       -0.0215
     22 C           2.5033    0.9025    0.0000 C.3     1  UNL1       -0.0215
     23 C           8.3321    0.0346    0.0000 C.ar    1  UNL1        0.3413
     24 C           8.6928   -2.3745    0.0000 C.3     1  UNL1       -0.0521
     25 C           9.6995   -0.6463    0.0000 C.3     1  UNL1       -0.0521
     26 C          10.0602   -2.0138    0.0000 C.2     1  UNL1       -0.0809
     27 C           6.5320    3.0137    0.0000 C.2     1  UNL1       -0.1018
     28 C          10.0564   -3.0137    0.0000 C.2     1  UNL1       -0.1018
     29 H           4.6660    2.1337    0.0000 H       1  UNL1        0.0241
     30 H           4.0460    1.5137    0.0000 H       1  UNL1        0.0241
     31 H           4.6660    0.8937    0.0000 H       1  UNL1        0.0241
     32 H           6.6660    0.8937    0.0000 H       1  UNL1        0.0241
     33 H           7.2860    1.5137    0.0000 H       1  UNL1        0.0241
     34 H           6.6660    2.1337    0.0000 H       1  UNL1        0.0241
     35 H           7.4188   -2.1409    0.0000 H       1  UNL1        0.0631
     36 H           2.4643   -1.3191    0.0000 H       1  UNL1        0.0611
     37 H           3.9132   -2.1409    0.0000 H       1  UNL1        0.0624
     38 H           5.1291    2.8237    0.0000 H       1  UNL1        0.0575
     39 H           3.0415    1.2104    0.0000 H       1  UNL1        0.0271
     40 H           2.0024    0.6584    0.0000 H       1  UNL1        0.0271
     41 H           1.3800    0.0408    0.0000 H       1  UNL1        0.0271
     42 H           1.9976   -0.5816    0.0000 H       1  UNL1        0.0271
     43 H           2.1954    1.4406    0.0000 H       1  UNL1        0.0271
     44 H           1.9652    0.5946    0.0000 H       1  UNL1        0.0271
     45 H           8.1571   -2.0624    0.0000 H       1  UNL1        0.0241
     46 H           8.3808   -2.9102    0.0000 H       1  UNL1        0.0241
     47 H           9.2286   -2.6866    0.0000 H       1  UNL1        0.0241
     48 H          10.2352   -0.9584    0.0000 H       1  UNL1        0.0241
     49 H          10.0116   -0.1106    0.0000 H       1  UNL1        0.0241
     50 H           9.1638   -0.3343    0.0000 H       1  UNL1        0.0241
     51 H          10.5984   -1.7058    0.0000 H       1  UNL1        0.0575
     52 H           5.1291   -2.7963    0.0000 H       1  UNL1        0.2922
     53 H           7.0690    2.7037    0.0000 H       1  UNL1        0.0532
     54 H           6.5320    3.6337    0.0000 H       1  UNL1        0.0532
     55 H           9.5183   -3.3217    0.0000 H       1  UNL1        0.0532
     56 H          10.5921   -3.3258    0.0000 H       1  UNL1        0.0532
@<TRIPOS>BOND
     1     1     7    1
     2     1     9    1
     3     2     8   ar
     4     2    23   ar
     5     3    13    1
     6     3    52    1
     7     4    23    2
     8     5     6    1
     9     5    15    1
    10     5    16    1
    11     5    20    1
    12     6     7   ar
    13     6     8   ar
    14     7    10   ar
    15     8    11   ar
    16     9    18    1
    17     9    21    1
    18     9    22    1
    19    10    13   ar
    20    10    19    1
    21    11    13   ar
    22    11    17   ar
    23    12    14    1
    24    12    24    1
    25    12    25    1
    26    12    26    1
    27    14    17   ar
    28    14    23   ar
    29    15    32    1
    30    15    33    1
    31    15    34    1
    32    16    29    1
    33    16    30    1
    34    16    31    1
    35    17    35    1
    36    18    19    2
    37    18    36    1
    38    19    37    1
    39    20    27    2
    40    20    38    1
    41    21    40    1
    42    21    41    1
    43    21    42    1
    44    22    39    1
    45    22    43    1
    46    22    44    1
    47    24    45    1
    48    24    46    1
    49    24    47    1
    50    25    48    1
    51    25    49    1
    52    25    50    1
    53    26    28    2
    54    26    51    1
    55    27    53    1
    56    27    54    1
    57    28    55    1
    58    28    56    1
