@<TRIPOS>MOLECULE
IMPHY013072
 214 228 0 0 0
SMALL
GASTEIGER

@<TRIPOS>ATOM
      1 O           3.9173    7.8862    0.0000 O.3     1  UNL1       -0.4640
      2 O           3.9173   17.0300    0.0000 O.3     2  UNL2       -0.4640
      3 O           0.9873    6.8114    0.0000 O.3     1  UNL1       -0.3868
      4 O           0.9873   15.9552    0.0000 O.3     2  UNL2       -0.3868
      5 O           5.3009    6.7722    0.0000 O.2     1  UNL1       -0.2505
      6 O           5.3009   15.9160    0.0000 O.2     2  UNL2       -0.2505
      7 O           1.6195    2.2298    0.0000 O.3     1  UNL1       -0.4526
      8 O           1.6195   11.3736    0.0000 O.3     2  UNL2       -0.4526
      9 O           0.1676    3.0681    0.0000 O.3     1  UNL1       -0.4526
     10 O           0.1676   12.2119    0.0000 O.3     2  UNL2       -0.4526
     11 O           7.0495    5.3114    0.0000 O.3     1  UNL1       -0.4913
     12 O           7.0495   14.4552    0.0000 O.3     2  UNL2       -0.4913
     13 O           5.3174    2.3114    0.0000 O.3     1  UNL1       -0.4913
     14 O           5.3174   11.4552    0.0000 O.3     2  UNL2       -0.4913
     15 O          13.6529   10.7220    0.0000 O.3     3  UNL3       -0.3868
     16 O          13.6529    0.3038    0.0000 O.3     4  UNL4       -0.3868
     17 O           7.0495    3.3114    0.0000 O.3     1  UNL1       -0.4885
     18 O           7.0495   12.4552    0.0000 O.3     2  UNL2       -0.4885
     19 O          11.8750   10.7324    0.0000 O.3     3  UNL3       -0.3946
     20 O          11.8750    0.3142    0.0000 O.3     4  UNL4       -0.3946
     21 O          11.0032   13.2841    0.0000 O.3     3  UNL3       -0.4804
     22 O          11.0032    2.8659    0.0000 O.3     4  UNL4       -0.4804
     23 O          17.2135   13.5613    0.0000 O.3     3  UNL3       -0.4526
     24 O          17.2135    3.1431    0.0000 O.3     4  UNL4       -0.4526
     25 O          17.2135   11.9519    0.0000 O.3     3  UNL3       -0.4526
     26 O          17.2135    1.5336    0.0000 O.3     4  UNL4       -0.4526
     27 O          11.8750   14.7807    0.0000 O.2     3  UNL3       -0.2507
     28 O          11.8750    4.3625    0.0000 O.2     4  UNL4       -0.2507
     29 O          11.9441   16.8111    0.0000 O.3     3  UNL3       -0.4913
     30 O          11.9441    6.3928    0.0000 O.3     4  UNL4       -0.4913
     31 O          15.4080   16.7710    0.0000 O.3     3  UNL3       -0.4913
     32 O          15.4080    6.3528    0.0000 O.3     4  UNL4       -0.4913
     33 O          13.6876   17.7910    0.0000 O.3     3  UNL3       -0.4885
     34 O          13.6876    7.3728    0.0000 O.3     4  UNL4       -0.4885
     35 C           2.7194    6.8114    0.0000 C.3     1  UNL1        0.0372
     36 C           2.7194   15.9552    0.0000 C.3     2  UNL2        0.0372
     37 C           3.5854    6.3114    0.0000 C.3     1  UNL1        0.0757
     38 C           3.5854   15.4552    0.0000 C.3     2  UNL2        0.0757
     39 C           3.5854    5.3114    0.0000 C.3     1  UNL1        0.0233
     40 C           3.5854   14.4552    0.0000 C.3     2  UNL2        0.0233
     41 C           1.8534    6.3114    0.0000 C.3     1  UNL1        0.0872
     42 C           1.8534   15.4552    0.0000 C.3     2  UNL2        0.0872
     43 C           2.7194    4.8114    0.0000 C.ar    1  UNL1       -0.0299
     44 C           2.7194   13.9552    0.0000 C.ar    2  UNL2       -0.0299
     45 C           2.9286    7.7832    0.0000 C.3     1  UNL1        0.0987
     46 C           2.9286   16.9270    0.0000 C.3     2  UNL2        0.0987
     47 C           1.8534    5.3114    0.0000 C.ar    1  UNL1       -0.0113
     48 C           1.8534   14.4552    0.0000 C.ar    2  UNL2       -0.0113
     49 C           4.3224    6.9785    0.0000 C.2     1  UNL1        0.3116
     50 C           4.3224   16.1222    0.0000 C.2     2  UNL2        0.3116
     51 C           4.4514    4.8114    0.0000 C.ar    1  UNL1       -0.0320
     52 C           4.4514   13.9552    0.0000 C.ar    2  UNL2       -0.0320
     53 C           2.7354    3.7699    0.0000 C.ar    1  UNL1       -0.0120
     54 C           2.7354   12.9136    0.0000 C.ar    2  UNL2       -0.0120
     55 C           0.9433    4.8045    0.0000 C.ar    1  UNL1       -0.0102
     56 C           0.9434   13.9483    0.0000 C.ar    2  UNL2       -0.0102
     57 C           1.8374    3.2421    0.0000 C.ar    1  UNL1        0.1665
     58 C           1.8374   12.3859    0.0000 C.ar    2  UNL2        0.1665
     59 C           0.9353    3.7629    0.0000 C.ar    1  UNL1        0.1666
     60 C           0.9353   12.9067    0.0000 C.ar    2  UNL2        0.1666
     61 C           4.4514    3.8114    0.0000 C.ar    1  UNL1       -0.0123
     62 C           4.4514   12.9552    0.0000 C.ar    2  UNL2       -0.0123
     63 C           5.3174    5.3114    0.0000 C.ar    1  UNL1       -0.0123
     64 C           5.3174   14.4552    0.0000 C.ar    2  UNL2       -0.0123
     65 C          12.7353   12.2358    0.0000 C.3     3  UNL3        0.0261
     66 C          12.7353    1.8176    0.0000 C.3     4  UNL4        0.0261
     67 C          12.7353   13.2774    0.0000 C.3     3  UNL3        0.0746
     68 C          12.7353    2.8592    0.0000 C.3     4  UNL4        0.0746
     69 C          13.6413   13.7912    0.0000 C.3     3  UNL3        0.0232
     70 C          13.6413    3.3730    0.0000 C.3     4  UNL4        0.0232
     71 C           6.1835    4.8114    0.0000 C.ar    1  UNL1        0.1654
     72 C           6.1835   13.9552    0.0000 C.ar    2  UNL2        0.1654
     73 C           5.3174    3.3114    0.0000 C.ar    1  UNL1        0.1654
     74 C           5.3174   12.4552    0.0000 C.ar    2  UNL2        0.1654
     75 C          13.6413   11.7219    0.0000 C.3     3  UNL3        0.0862
     76 C          13.6413    1.3037    0.0000 C.3     4  UNL4        0.0862
     77 C          14.5353   13.2566    0.0000 C.ar    3  UNL3       -0.0299
     78 C          14.5353    2.8384    0.0000 C.ar    4  UNL4       -0.0299
     79 C          14.5353   12.2566    0.0000 C.ar    3  UNL3       -0.0113
     80 C          14.5353    1.8384    0.0000 C.ar    4  UNL4       -0.0113
     81 C           0.5896    2.1225    0.0000 C.3     1  UNL1        0.2332
     82 C           0.5896   11.2663    0.0000 C.3     2  UNL2        0.2332
     83 C           6.1835    3.8114    0.0000 C.ar    1  UNL1        0.2035
     84 C           6.1835   12.9552    0.0000 C.ar    2  UNL2        0.2035
     85 C          11.8712   11.7324    0.0000 C.3     3  UNL3        0.0505
     86 C          11.8712    1.3142    0.0000 C.3     4  UNL4        0.0505
     87 C          13.6529   14.7912    0.0000 C.ar    3  UNL3       -0.0320
     88 C          13.6529    4.3730    0.0000 C.ar    4  UNL4       -0.0320
     89 C          11.8712   13.7807    0.0000 C.2     3  UNL3        0.3092
     90 C          11.8712    3.3625    0.0000 C.2     4  UNL4        0.3092
     91 C          15.4013   13.7566    0.0000 C.ar    3  UNL3       -0.0120
     92 C          15.4013    3.3384    0.0000 C.ar    4  UNL4       -0.0120
     93 C          15.4013   11.7566    0.0000 C.ar    3  UNL3       -0.0102
     94 C          15.4013    1.3384    0.0000 C.ar    4  UNL4       -0.0102
     95 C          16.2673   13.2566    0.0000 C.ar    3  UNL3        0.1665
     96 C          16.2673    2.8384    0.0000 C.ar    4  UNL4        0.1665
     97 C          16.2673   12.2566    0.0000 C.ar    3  UNL3        0.1666
     98 C          16.2673    1.8384    0.0000 C.ar    4  UNL4        0.1666
     99 C          14.5246   15.2811    0.0000 C.ar    3  UNL3       -0.0123
    100 C          14.5246    4.8629    0.0000 C.ar    4  UNL4       -0.0123
    101 C          12.7927   15.3012    0.0000 C.ar    3  UNL3       -0.0123
    102 C          12.7927    4.8829    0.0000 C.ar    4  UNL4       -0.0123
    103 C           7.0495    6.3114    0.0000 C.3     1  UNL1        0.0790
    104 C           7.0495   15.4552    0.0000 C.3     2  UNL2        0.0790
    105 C           6.1835    1.8114    0.0000 C.3     1  UNL1        0.0790
    106 C           6.1835   10.9552    0.0000 C.3     2  UNL2        0.0790
    107 C          12.8043   16.3011    0.0000 C.ar    3  UNL3        0.1654
    108 C          12.8043    5.8829    0.0000 C.ar    4  UNL4        0.1654
    109 C          14.5362   16.2811    0.0000 C.ar    3  UNL3        0.1654
    110 C          14.5362    5.8628    0.0000 C.ar    4  UNL4        0.1654
    111 C          17.7971   12.7566    0.0000 C.3     3  UNL3        0.2332
    112 C          17.7971    2.3384    0.0000 C.3     4  UNL4        0.2332
    113 C          13.6760   16.7910    0.0000 C.ar    3  UNL3        0.2035
    114 C          13.6760    6.3728    0.0000 C.ar    4  UNL4        0.2035
    115 C           7.9155    3.8114    0.0000 C.3     1  UNL1        0.0791
    116 C           7.9155   12.9552    0.0000 C.3     2  UNL2        0.0791
    117 C          11.9556   17.8110    0.0000 C.3     3  UNL3        0.0790
    118 C          11.9556    7.3928    0.0000 C.3     4  UNL4        0.0790
    119 C          16.2681   16.2610    0.0000 C.3     3  UNL3        0.0790
    120 C          16.2681    5.8428    0.0000 C.3     4  UNL4        0.0790
    121 C          14.5593   18.2809    0.0000 C.3     3  UNL3        0.0791
    122 C          14.5593    7.8627    0.0000 C.3     4  UNL4        0.0791
    123 H           2.2183    7.1765    0.0000 H       1  UNL1        0.0370
    124 H           2.2183   16.3202    0.0000 H       2  UNL2        0.0370
    125 H           4.1521    6.0599    0.0000 H       1  UNL1        0.0427
    126 H           4.1521   15.2037    0.0000 H       2  UNL2        0.0427
    127 H           3.5854    4.6914    0.0000 H       1  UNL1        0.0405
    128 H           4.1223   14.7652    0.0000 H       2  UNL2        0.0405
    129 H           1.3164    6.0014    0.0000 H       1  UNL1        0.0648
    130 H           1.3164   15.1452    0.0000 H       2  UNL2        0.0648
    131 H           2.9295    8.4032    0.0000 H       1  UNL1        0.0701
    132 H           2.3121    7.8492    0.0000 H       1  UNL1        0.0701
    133 H           2.9295   17.5470    0.0000 H       2  UNL2        0.0701
    134 H           2.3121   16.9930    0.0000 H       2  UNL2        0.0701
    135 H           3.2759    3.4661    0.0000 H       1  UNL1        0.0658
    136 H           3.2759   12.6099    0.0000 H       2  UNL2        0.0658
    137 H           0.4100    5.1207    0.0000 H       1  UNL1        0.0659
    138 H           0.4100   14.2645    0.0000 H       2  UNL2        0.0659
    139 H           0.9873    7.4314    0.0000 H       1  UNL1        0.2102
    140 H           0.9873   16.5752    0.0000 H       2  UNL2        0.2102
    141 H           3.9145    3.5014    0.0000 H       1  UNL1        0.0658
    142 H           3.9145   12.6452    0.0000 H       2  UNL2        0.0658
    143 H           5.3174    5.9314    0.0000 H       1  UNL1        0.0658
    144 H           5.3174   15.0752    0.0000 H       2  UNL2        0.0658
    145 H          12.1977   12.5447    0.0000 H       3  UNL3        0.0359
    146 H          12.1977    2.1265    0.0000 H       4  UNL4        0.0359
    147 H          12.7388   13.8974    0.0000 H       3  UNL3        0.0427
    148 H          12.1977    2.5502    0.0000 H       4  UNL4        0.0427
    149 H          13.1074   14.1064    0.0000 H       3  UNL3        0.0405
    150 H          13.1074    3.6882    0.0000 H       4  UNL4        0.0405
    151 H          13.1074   11.4068    0.0000 H       3  UNL3        0.0647
    152 H          14.1824    1.0010    0.0000 H       4  UNL4        0.0647
    153 H           0.0000    1.9307    0.0000 H       1  UNL1        0.1166
    154 H           0.7183    1.5160    0.0000 H       1  UNL1        0.1166
    155 H           0.0000   11.0745    0.0000 H       2  UNL2        0.1166
    156 H           0.7183   10.6598    0.0000 H       2  UNL2        0.1166
    157 H          11.6569   12.3142    0.0000 H       3  UNL3        0.0561
    158 H          11.2610   11.6224    0.0000 H       3  UNL3        0.0561
    159 H          11.6569    1.8960    0.0000 H       4  UNL4        0.0561
    160 H          11.2610    1.2042    0.0000 H       4  UNL4        0.0561
    161 H          15.4013   14.3766    0.0000 H       3  UNL3        0.0658
    162 H          15.4013    3.9584    0.0000 H       4  UNL4        0.0658
    163 H          15.4013   11.1366    0.0000 H       3  UNL3        0.0659
    164 H          15.4013    0.7184    0.0000 H       4  UNL4        0.0659
    165 H          14.1934   10.4182    0.0000 H       3  UNL3        0.2102
    166 H          14.1934    0.0000    0.0000 H       4  UNL4        0.2102
    167 H          15.0580   14.9649    0.0000 H       3  UNL3        0.0658
    168 H          15.0580    4.5467    0.0000 H       4  UNL4        0.0658
    169 H          12.2522   14.9974    0.0000 H       3  UNL3        0.0658
    170 H          12.2522    4.5792    0.0000 H       4  UNL4        0.0658
    171 H          11.3393   10.4204    0.0000 H       3  UNL3        0.2094
    172 H          11.3393    0.0022    0.0000 H       4  UNL4        0.2094
    173 H           7.6695    6.3114    0.0000 H       1  UNL1        0.0660
    174 H           7.0495    6.9314    0.0000 H       1  UNL1        0.0660
    175 H           6.4295    6.3114    0.0000 H       1  UNL1        0.0660
    176 H           7.6695   15.4552    0.0000 H       2  UNL2        0.0660
    177 H           7.0495   16.0752    0.0000 H       2  UNL2        0.0660
    178 H           6.4295   15.4552    0.0000 H       2  UNL2        0.0660
    179 H           5.8735    1.2744    0.0000 H       1  UNL1        0.0660
    180 H           6.7204    1.5014    0.0000 H       1  UNL1        0.0660
    181 H           6.4935    2.3483    0.0000 H       1  UNL1        0.0660
    182 H           5.8735   10.4182    0.0000 H       2  UNL2        0.0660
    183 H           6.7204   10.6452    0.0000 H       2  UNL2        0.0660
    184 H           6.4935   11.4921    0.0000 H       2  UNL2        0.0660
    185 H          10.4675   13.5961    0.0000 H       3  UNL3        0.2951
    186 H          10.4675    3.1779    0.0000 H       4  UNL4        0.2951
    187 H          18.2580   12.3419    0.0000 H       3  UNL3        0.1166
    188 H          18.2580   13.1713    0.0000 H       3  UNL3        0.1166
    189 H          18.2580    1.9236    0.0000 H       4  UNL4        0.1166
    190 H          18.2580    2.7531    0.0000 H       4  UNL4        0.1166
    191 H           8.2255    3.2744    0.0000 H       1  UNL1        0.0660
    192 H           8.4525    4.1214    0.0000 H       1  UNL1        0.0660
    193 H           7.6055    4.3483    0.0000 H       1  UNL1        0.0660
    194 H           8.2255   12.4182    0.0000 H       2  UNL2        0.0660
    195 H           8.4525   13.2652    0.0000 H       2  UNL2        0.0660
    196 H           7.6055   13.4921    0.0000 H       2  UNL2        0.0660
    197 H          12.5756   17.8038    0.0000 H       3  UNL3        0.0660
    198 H          11.9628   18.4310    0.0000 H       3  UNL3        0.0660
    199 H          11.3357   17.8182    0.0000 H       3  UNL3        0.0660
    200 H          12.5756    7.3856    0.0000 H       4  UNL4        0.0660
    201 H          11.9628    8.0128    0.0000 H       4  UNL4        0.0660
    202 H          11.3357    7.4000    0.0000 H       4  UNL4        0.0660
    203 H          15.9520   15.7277    0.0000 H       3  UNL3        0.0660
    204 H          16.8015   15.9448    0.0000 H       3  UNL3        0.0660
    205 H          16.5843   16.7944    0.0000 H       3  UNL3        0.0660
    206 H          15.9520    5.3095    0.0000 H       4  UNL4        0.0660
    207 H          16.8015    5.5266    0.0000 H       4  UNL4        0.0660
    208 H          16.5843    6.3761    0.0000 H       4  UNL4        0.0660
    209 H          14.8631   17.7404    0.0000 H       3  UNL3        0.0660
    210 H          15.0998   18.5847    0.0000 H       3  UNL3        0.0660
    211 H          14.2556   18.8214    0.0000 H       3  UNL3        0.0660
    212 H          14.8631    7.3222    0.0000 H       4  UNL4        0.0660
    213 H          15.0998    8.1665    0.0000 H       4  UNL4        0.0660
    214 H          14.2556    8.4032    0.0000 H       4  UNL4        0.0660
@<TRIPOS>BOND
     1     1    45    1
     2     1    49    1
     3     2    46    1
     4     2    50    1
     5     3    41    1
     6     3   139    1
     7     4    42    1
     8     4   140    1
     9     5    49    2
    10     6    50    2
    11     7    57    1
    12     7    81    1
    13     8    58    1
    14     8    82    1
    15     9    59    1
    16     9    81    1
    17    10    60    1
    18    10    82    1
    19    11    71    1
    20    11   103    1
    21    12    72    1
    22    12   104    1
    23    13    73    1
    24    13   105    1
    25    14    74    1
    26    14   106    1
    27    15    75    1
    28    15   165    1
    29    16    76    1
    30    16   166    1
    31    17    83    1
    32    17   115    1
    33    18    84    1
    34    18   116    1
    35    19    85    1
    36    19   171    1
    37    20    86    1
    38    20   172    1
    39    21    89    1
    40    21   185    1
    41    22    90    1
    42    22   186    1
    43    23    95    1
    44    23   111    1
    45    24    96    1
    46    24   112    1
    47    25    97    1
    48    25   111    1
    49    26    98    1
    50    26   112    1
    51    27    89    2
    52    28    90    2
    53    29   107    1
    54    29   117    1
    55    30   108    1
    56    30   118    1
    57    31   109    1
    58    31   119    1
    59    32   110    1
    60    32   120    1
    61    33   113    1
    62    33   121    1
    63    34   114    1
    64    34   122    1
    65    35    37    1
    66    35    41    1
    67    35    45    1
    68    35   123    1
    69    36    38    1
    70    36    42    1
    71    36    46    1
    72    36   124    1
    73    37    39    1
    74    37    49    1
    75    37   125    1
    76    38    40    1
    77    38    50    1
    78    38   126    1
    79    39    43    1
    80    39    51    1
    81    39   127    1
    82    40    44    1
    83    40    52    1
    84    40   128    1
    85    41    47    1
    86    41   129    1
    87    42    48    1
    88    42   130    1
    89    43    47   ar
    90    43    53   ar
    91    44    48   ar
    92    44    54   ar
    93    45   131    1
    94    45   132    1
    95    46   133    1
    96    46   134    1
    97    47    55   ar
    98    48    56   ar
    99    51    61   ar
   100    51    63   ar
   101    52    62   ar
   102    52    64   ar
   103    53    57   ar
   104    53   135    1
   105    54    58   ar
   106    54   136    1
   107    55    59   ar
   108    55   137    1
   109    56    60   ar
   110    56   138    1
   111    57    59   ar
   112    58    60   ar
   113    61    73   ar
   114    61   141    1
   115    62    74   ar
   116    62   142    1
   117    63    71   ar
   118    63   143    1
   119    64    72   ar
   120    64   144    1
   121    65    67    1
   122    65    75    1
   123    65    85    1
   124    65   145    1
   125    66    68    1
   126    66    76    1
   127    66    86    1
   128    66   146    1
   129    67    69    1
   130    67    89    1
   131    67   147    1
   132    68    70    1
   133    68    90    1
   134    68   148    1
   135    69    77    1
   136    69    87    1
   137    69   149    1
   138    70    78    1
   139    70    88    1
   140    70   150    1
   141    71    83   ar
   142    72    84   ar
   143    73    83   ar
   144    74    84   ar
   145    75    79    1
   146    75   151    1
   147    76    80    1
   148    76   152    1
   149    77    79   ar
   150    77    91   ar
   151    78    80   ar
   152    78    92   ar
   153    79    93   ar
   154    80    94   ar
   155    81   153    1
   156    81   154    1
   157    82   155    1
   158    82   156    1
   159    85   157    1
   160    85   158    1
   161    86   159    1
   162    86   160    1
   163    87    99   ar
   164    87   101   ar
   165    88   100   ar
   166    88   102   ar
   167    91    95   ar
   168    91   161    1
   169    92    96   ar
   170    92   162    1
   171    93    97   ar
   172    93   163    1
   173    94    98   ar
   174    94   164    1
   175    95    97   ar
   176    96    98   ar
   177    99   109   ar
   178    99   167    1
   179   100   110   ar
   180   100   168    1
   181   101   107   ar
   182   101   169    1
   183   102   108   ar
   184   102   170    1
   185   103   173    1
   186   103   174    1
   187   103   175    1
   188   104   176    1
   189   104   177    1
   190   104   178    1
   191   105   179    1
   192   105   180    1
   193   105   181    1
   194   106   182    1
   195   106   183    1
   196   106   184    1
   197   107   113   ar
   198   108   114   ar
   199   109   113   ar
   200   110   114   ar
   201   111   187    1
   202   111   188    1
   203   112   189    1
   204   112   190    1
   205   115   191    1
   206   115   192    1
   207   115   193    1
   208   116   194    1
   209   116   195    1
   210   116   196    1
   211   117   197    1
   212   117   198    1
   213   117   199    1
   214   118   200    1
   215   118   201    1
   216   118   202    1
   217   119   203    1
   218   119   204    1
   219   119   205    1
   220   120   206    1
   221   120   207    1
   222   120   208    1
   223   121   209    1
   224   121   210    1
   225   121   211    1
   226   122   212    1
   227   122   213    1
   228   122   214    1
