@<TRIPOS>MOLECULE
IMPHY017890
 25 24 0 0 0
SMALL
GASTEIGER

@<TRIPOS>ATOM
      1 O           6.3301    1.2500    0.0000 O.2     1  UNL1       -0.2974
      2 C           4.5981    0.2500    0.0000 C.3     1  UNL1       -0.0438
      3 C           5.4641   -0.2500    0.0000 C.3     1  UNL1        0.0144
      4 C           3.7320   -0.2500    0.0000 C.3     1  UNL1       -0.0527
      5 C           2.8660    0.2500    0.0000 C.3     1  UNL1       -0.0559
      6 C           5.4641   -1.2500    0.0000 C.3     1  UNL1       -0.0557
      7 C           6.3301    0.2500    0.0000 C.2     1  UNL1        0.1331
      8 C           2.0000   -0.2500    0.0000 C.3     1  UNL1       -0.0653
      9 C           7.1962   -0.2500    0.0000 C.3     1  UNL1       -0.0058
     10 H           4.9966    0.7249    0.0000 H       1  UNL1        0.0272
     11 H           4.1996    0.7249    0.0000 H       1  UNL1        0.0272
     12 H           6.2002   -0.6750    0.0000 H       1  UNL1        0.0374
     13 H           3.3335   -0.7249    0.0000 H       1  UNL1        0.0265
     14 H           4.1306   -0.7249    0.0000 H       1  UNL1        0.0265
     15 H           3.2646    0.7249    0.0000 H       1  UNL1        0.0263
     16 H           2.4675    0.7249    0.0000 H       1  UNL1        0.0263
     17 H           4.8441   -1.2500    0.0000 H       1  UNL1        0.0236
     18 H           5.4641   -1.8700    0.0000 H       1  UNL1        0.0236
     19 H           6.0841   -1.2500    0.0000 H       1  UNL1        0.0236
     20 H           1.6900    0.2869    0.0000 H       1  UNL1        0.0230
     21 H           1.4631   -0.5600    0.0000 H       1  UNL1        0.0230
     22 H           2.3100   -0.7869    0.0000 H       1  UNL1        0.0230
     23 H           6.8862   -0.7869    0.0000 H       1  UNL1        0.0306
     24 H           7.7331   -0.5600    0.0000 H       1  UNL1        0.0306
     25 H           7.5062    0.2869    0.0000 H       1  UNL1        0.0306
@<TRIPOS>BOND
     1     1     7    2
     2     2     3    1
     3     2     4    1
     4     2    10    1
     5     2    11    1
     6     3     6    1
     7     3     7    1
     8     3    12    1
     9     4     5    1
    10     4    13    1
    11     4    14    1
    12     5     8    1
    13     5    15    1
    14     5    16    1
    15     6    17    1
    16     6    18    1
    17     6    19    1
    18     7     9    1
    19     8    20    1
    20     8    21    1
    21     8    22    1
    22     9    23    1
    23     9    24    1
    24     9    25    1
