@<TRIPOS>MOLECULE
IMPHY012715
 28 29 0 0 0
SMALL
GASTEIGER

@<TRIPOS>ATOM
      1 O           2.0000   -2.9400    0.0000 O.3     1  UNL1       -0.5066
      2 O           5.4641   -2.9400    0.0000 O.3     1  UNL1       -0.5066
      3 C           3.7320   -0.9400    0.0000 C.ar    1  UNL1       -0.0181
      4 C           4.5981    1.5600    0.0000 C.ar    1  UNL1       -0.0250
      5 C           3.7320    0.0600    0.0000 C.2     1  UNL1       -0.0538
      6 C           4.5981   -1.4400    0.0000 C.ar    1  UNL1       -0.0128
      7 C           2.8660   -1.4400    0.0000 C.ar    1  UNL1       -0.0128
      8 C           4.5981    0.5600    0.0000 C.2     1  UNL1       -0.0540
      9 C           2.8660   -2.4400    0.0000 C.ar    1  UNL1        0.1209
     10 C           4.5981   -2.4400    0.0000 C.ar    1  UNL1        0.1209
     11 C           3.7320   -2.9400    0.0000 C.ar    1  UNL1        0.0213
     12 C           5.4641    2.0600    0.0000 C.ar    1  UNL1       -0.0546
     13 C           3.7320    2.0600    0.0000 C.ar    1  UNL1       -0.0546
     14 C           5.4641    3.0600    0.0000 C.ar    1  UNL1       -0.0612
     15 C           3.7320    3.0600    0.0000 C.ar    1  UNL1       -0.0612
     16 C           4.5981    3.5600    0.0000 C.ar    1  UNL1       -0.0617
     17 H           3.1951    0.3700    0.0000 H       1  UNL1        0.0624
     18 H           5.1350   -1.1300    0.0000 H       1  UNL1        0.0660
     19 H           2.3291   -1.1300    0.0000 H       1  UNL1        0.0660
     20 H           5.1350    0.2500    0.0000 H       1  UNL1        0.0624
     21 H           3.7320   -3.5600    0.0000 H       1  UNL1        0.0691
     22 H           6.0010    1.7500    0.0000 H       1  UNL1        0.0623
     23 H           3.1951    1.7500    0.0000 H       1  UNL1        0.0623
     24 H           6.0010    3.3700    0.0000 H       1  UNL1        0.0618
     25 H           3.1951    3.3700    0.0000 H       1  UNL1        0.0618
     26 H           4.5981    4.1800    0.0000 H       1  UNL1        0.0618
     27 H           2.0000   -3.5600    0.0000 H       1  UNL1        0.2921
     28 H           5.4641   -3.5600    0.0000 H       1  UNL1        0.2921
@<TRIPOS>BOND
     1     1     9    1
     2     1    27    1
     3     2    10    1
     4     2    28    1
     5     3     5    1
     6     3     6   ar
     7     3     7   ar
     8     4     8    1
     9     4    12   ar
    10     4    13   ar
    11     5     8    2
    12     5    17    1
    13     6    10   ar
    14     6    18    1
    15     7     9   ar
    16     7    19    1
    17     8    20    1
    18     9    11   ar
    19    10    11   ar
    20    11    21    1
    21    12    14   ar
    22    12    22    1
    23    13    15   ar
    24    13    23    1
    25    14    16   ar
    26    14    24    1
    27    15    16   ar
    28    15    25    1
    29    16    26    1
