@<TRIPOS>MOLECULE
IMPHY016383
 17 17 0 0 0
SMALL
GASTEIGER

@<TRIPOS>ATOM
      1 O           4.5981    1.7500    0.0000 O.2     1  UNL1       -0.2957
      2 C           2.8660   -1.2500    0.0000 C.ar    1  UNL1       -0.0498
      3 C           2.8660   -0.2500    0.0000 C.ar    1  UNL1       -0.0486
      4 C           3.7320    0.2500    0.0000 C.ar    1  UNL1        0.0144
      5 C           3.7320   -1.7500    0.0000 C.ar    1  UNL1       -0.0588
      6 C           4.5981   -0.2500    0.0000 C.ar    1  UNL1       -0.0515
      7 C           4.5981   -1.2500    0.0000 C.ar    1  UNL1       -0.0609
      8 C           2.0000   -1.7500    0.0000 C.3     1  UNL1       -0.0397
      9 C           3.7320    1.2500    0.0000 C.2     1  UNL1        0.1502
     10 H           2.3291    0.0600    0.0000 H       1  UNL1        0.0627
     11 H           3.7320   -2.3700    0.0000 H       1  UNL1        0.0620
     12 H           5.1350    0.0600    0.0000 H       1  UNL1        0.0624
     13 H           1.6900   -1.2131    0.0000 H       1  UNL1        0.0278
     14 H           1.4631   -2.0600    0.0000 H       1  UNL1        0.0278
     15 H           2.3100   -2.2869    0.0000 H       1  UNL1        0.0278
     16 H           5.1350   -1.5600    0.0000 H       1  UNL1        0.0618
     17 H           3.1951    1.5600    0.0000 H       1  UNL1        0.1081
@<TRIPOS>BOND
     1     1     9    2
     2     2     3   ar
     3     2     5   ar
     4     2     8    1
     5     3     4   ar
     6     3    10    1
     7     4     6   ar
     8     4     9    1
     9     5     7   ar
    10     5    11    1
    11     6     7   ar
    12     6    12    1
    13     7    16    1
    14     8    13    1
    15     8    14    1
    16     8    15    1
    17     9    17    1
