@<TRIPOS>MOLECULE
IMPHY000436
 43 44 0 0 0
SMALL
GASTEIGER

@<TRIPOS>ATOM
      1 O           5.8207    1.2520    0.0000 O.3     1  UNL1       -0.3879
      2 O           4.6208    1.5881    0.0000 O.3     1  UNL1       -0.3911
      3 C           5.1881   -0.0075    0.0000 C.3     1  UNL1        0.0201
      4 C           5.1931   -1.0075    0.0000 C.3     1  UNL1       -0.0207
      5 C           6.1328    0.3019    0.0000 C.3     1  UNL1        0.0741
      6 C           6.1408   -1.3075    0.0000 C.3     1  UNL1       -0.0443
      7 C           6.7204   -0.4999    0.0000 C.3     1  UNL1       -0.0229
      8 C           4.4032    0.6120    0.0000 C.3     1  UNL1        0.0648
      9 C           6.9399    0.8923    0.0000 C.3     1  UNL1       -0.0174
     10 C           4.4144   -1.6349    0.0000 C.3     1  UNL1       -0.0287
     11 C           5.1981   -2.0075    0.0000 C.3     1  UNL1       -0.0589
     12 C           3.4294    0.3847    0.0000 C.3     1  UNL1       -0.0055
     13 C           3.4384   -1.4172    0.0000 C.2     1  UNL1       -0.0844
     14 C           3.0000   -0.5185    0.0000 C.2     1  UNL1       -0.0741
     15 C           7.8548    0.4886    0.0000 C.3     1  UNL1       -0.0600
     16 C           6.8321    1.8865    0.0000 C.3     1  UNL1       -0.0600
     17 C           2.0000   -0.5234    0.0000 C.3     1  UNL1       -0.0437
     18 H           5.3368    0.8294    0.0000 H       1  UNL1        0.0359
     19 H           5.8926   -1.8757    0.0000 H       1  UNL1        0.0272
     20 H           6.6797   -1.6141    0.0000 H       1  UNL1        0.0272
     21 H           7.1833   -0.9123    0.0000 H       1  UNL1        0.0293
     22 H           7.1792   -0.0829    0.0000 H       1  UNL1        0.0293
     23 H           3.9626    1.0483    0.0000 H       1  UNL1        0.0600
     24 H           7.4403    1.2584    0.0000 H       1  UNL1        0.0323
     25 H           4.1482   -2.1948    0.0000 H       1  UNL1        0.0313
     26 H           4.9010   -2.0190    0.0000 H       1  UNL1        0.0313
     27 H           4.5781   -2.0106    0.0000 H       1  UNL1        0.0235
     28 H           5.2012   -2.6275    0.0000 H       1  UNL1        0.0235
     29 H           5.8181   -2.0044    0.0000 H       1  UNL1        0.0235
     30 H           3.4263    1.0047    0.0000 H       1  UNL1        0.0335
     31 H           2.8242    0.5196    0.0000 H       1  UNL1        0.0335
     32 H           3.0542   -1.9039    0.0000 H       1  UNL1        0.0572
     33 H           6.2340    1.7141    0.0000 H       1  UNL1        0.2102
     34 H           7.6044   -0.0786    0.0000 H       1  UNL1        0.0233
     35 H           8.4220    0.2382    0.0000 H       1  UNL1        0.0233
     36 H           8.1051    1.0558    0.0000 H       1  UNL1        0.0233
     37 H           7.4485    1.9533    0.0000 H       1  UNL1        0.0233
     38 H           6.7653    2.5029    0.0000 H       1  UNL1        0.0233
     39 H           6.2157    1.8197    0.0000 H       1  UNL1        0.0233
     40 H           4.1642    2.0075    0.0000 H       1  UNL1        0.2098
     41 H           1.9969    0.0966    0.0000 H       1  UNL1        0.0274
     42 H           1.3800   -0.5265    0.0000 H       1  UNL1        0.0274
     43 H           2.0031   -1.1434    0.0000 H       1  UNL1        0.0274
@<TRIPOS>BOND
     1     5     1    1
     2     1    33    1
     3     8     2    1
     4     2    40    1
     5     3     4    1
     6     3     5    1
     7     3     8    1
     8     3    18    1
     9     4     6    1
    10     4    10    1
    11     4    11    1
    12     5     7    1
    13     5     9    1
    14     6     7    1
    15     6    19    1
    16     6    20    1
    17     7    21    1
    18     7    22    1
    19     8    12    1
    20     8    23    1
    21     9    15    1
    22     9    16    1
    23     9    24    1
    24    10    13    1
    25    10    25    1
    26    10    26    1
    27    11    27    1
    28    11    28    1
    29    11    29    1
    30    12    14    1
    31    12    30    1
    32    12    31    1
    33    13    14    2
    34    13    32    1
    35    14    17    1
    36    15    34    1
    37    15    35    1
    38    15    36    1
    39    16    37    1
    40    16    38    1
    41    16    39    1
    42    17    41    1
    43    17    42    1
    44    17    43    1
