@<TRIPOS>MOLECULE
IMPHY011292
 82 85 0 0 0
SMALL
GASTEIGER

@<TRIPOS>ATOM
      1 O           9.6005    0.6680    0.0000 O.3     1  UNL1       -0.3886
      2 O           2.0000   -3.3289    0.0000 O.2     1  UNL1       -0.2968
      3 C           6.5271   -1.7766    0.0000 C.3     1  UNL1       -0.0231
      4 C           7.3931   -1.2766    0.0000 C.3     1  UNL1       -0.0232
      5 C           5.6610   -1.2766    0.0000 C.3     1  UNL1       -0.0294
      6 C           7.3931   -0.2766    0.0000 C.3     1  UNL1       -0.0297
      7 C           4.7510   -1.7834    0.0000 C.3     1  UNL1       -0.0246
      8 C           4.7430   -2.8250    0.0000 C.3     1  UNL1       -0.0235
      9 C           6.5431   -2.8181    0.0000 C.3     1  UNL1       -0.0466
     10 C           8.3393    0.0282    0.0000 C.3     1  UNL1       -0.0090
     11 C           5.6610   -0.2766    0.0000 C.3     1  UNL1       -0.0489
     12 C           8.3393   -1.5813    0.0000 C.3     1  UNL1       -0.0465
     13 C           6.5271    0.2234    0.0000 C.3     1  UNL1       -0.0491
     14 C           5.6451   -3.3458    0.0000 C.3     1  UNL1       -0.0483
     15 C           8.9229   -0.7766    0.0000 C.3     1  UNL1       -0.0468
     16 C           7.1698   -2.5426    0.0000 C.3     1  UNL1       -0.0588
     17 C           3.8242   -1.2193    0.0000 C.3     1  UNL1       -0.0404
     18 C           3.8076   -3.3747    0.0000 C.3     1  UNL1        0.0267
     19 C           7.7352   -2.2162    0.0000 C.3     1  UNL1       -0.0588
     20 C           8.6500    0.9787    0.0000 C.3     1  UNL1        0.0667
     21 C           4.7587   -0.7834    0.0000 C.3     1  UNL1       -0.0590
     22 C           2.8763   -1.7473    0.0000 C.3     1  UNL1        0.0069
     23 C           2.8680   -2.8322    0.0000 C.2     1  UNL1        0.1392
     24 C           3.3109   -4.2427    0.0000 C.3     1  UNL1       -0.0528
     25 C           4.3109   -4.2388    0.0000 C.3     1  UNL1       -0.0528
     26 C           8.9606    1.9292    0.0000 C.3     1  UNL1       -0.0206
     27 C           7.6994    1.2894    0.0000 C.3     1  UNL1       -0.0358
     28 C           9.9391    2.1354    0.0000 C.3     1  UNL1       -0.0319
     29 C          10.2498    3.0859    0.0000 C.2     1  UNL1       -0.0852
     30 C          11.2283    3.2922    0.0000 C.2     1  UNL1       -0.0796
     31 C          11.5390    4.2427    0.0000 C.3     1  UNL1       -0.0440
     32 C          11.8961    2.5479    0.0000 C.3     1  UNL1       -0.0440
     33 H           6.3972   -0.8516    0.0000 H       1  UNL1        0.0312
     34 H           7.4830    0.5687    0.0000 H       1  UNL1        0.0310
     35 H           4.7463   -3.6750    0.0000 H       1  UNL1        0.0315
     36 H           6.7612   -3.3985    0.0000 H       1  UNL1        0.0271
     37 H           7.1523   -2.7026    0.0000 H       1  UNL1        0.0271
     38 H           9.1790    0.1600    0.0000 H       1  UNL1        0.0331
     39 H           5.4490    0.3060    0.0000 H       1  UNL1        0.0268
     40 H           5.0504   -0.3842    0.0000 H       1  UNL1        0.0268
     41 H           8.0883   -2.1482    0.0000 H       1  UNL1        0.0271
     42 H           8.8767   -1.8905    0.0000 H       1  UNL1        0.0271
     43 H           6.9256    0.6984    0.0000 H       1  UNL1        0.0268
     44 H           6.1285    0.6984    0.0000 H       1  UNL1        0.0268
     45 H           5.2478   -3.8218    0.0000 H       1  UNL1        0.0269
     46 H           6.0460   -3.8187    0.0000 H       1  UNL1        0.0269
     47 H           9.3838   -1.1913    0.0000 H       1  UNL1        0.0269
     48 H           9.3838   -0.3618    0.0000 H       1  UNL1        0.0269
     49 H           6.6949   -2.9411    0.0000 H       1  UNL1        0.0235
     50 H           7.5684   -3.0176    0.0000 H       1  UNL1        0.0235
     51 H           7.6448   -2.1441    0.0000 H       1  UNL1        0.0235
     52 H           4.2324   -0.7527    0.0000 H       1  UNL1        0.0275
     53 H           3.4343   -0.7373    0.0000 H       1  UNL1        0.0275
     54 H           7.1526   -2.4283    0.0000 H       1  UNL1        0.0235
     55 H           7.9473   -2.7988    0.0000 H       1  UNL1        0.0235
     56 H           8.3178   -2.0041    0.0000 H       1  UNL1        0.0235
     57 H           5.3787   -0.7882    0.0000 H       1  UNL1        0.0235
     58 H           4.7635   -0.1635    0.0000 H       1  UNL1        0.0235
     59 H           4.1388   -0.7787    0.0000 H       1  UNL1        0.0235
     60 H           2.6718   -1.1620    0.0000 H       1  UNL1        0.0342
     61 H           2.2647   -1.8487    0.0000 H       1  UNL1        0.0342
     62 H           2.7728   -3.9348    0.0000 H       1  UNL1        0.0239
     63 H           3.0030   -4.7808    0.0000 H       1  UNL1        0.0239
     64 H           3.8490   -4.5506    0.0000 H       1  UNL1        0.0239
     65 H           3.7752   -4.5509    0.0000 H       1  UNL1        0.0239
     66 H           4.6230   -4.7746    0.0000 H       1  UNL1        0.0239
     67 H           4.8466   -3.9268    0.0000 H       1  UNL1        0.0239
     68 H           8.9401    2.5489    0.0000 H       1  UNL1        0.0296
     69 H           8.3468    2.0166    0.0000 H       1  UNL1        0.0296
     70 H           7.8921    1.8787    0.0000 H       1  UNL1        0.0257
     71 H           7.1101    1.4820    0.0000 H       1  UNL1        0.0257
     72 H           7.5068    0.7000    0.0000 H       1  UNL1        0.0257
     73 H          10.0620    1.0821    0.0000 H       1  UNL1        0.2102
     74 H           9.9597    1.5158    0.0000 H       1  UNL1        0.0308
     75 H          10.5530    2.0481    0.0000 H       1  UNL1        0.0308
     76 H           9.8357    3.5474    0.0000 H       1  UNL1        0.0571
     77 H          12.1283    4.0501    0.0000 H       1  UNL1        0.0274
     78 H          11.7316    4.8320    0.0000 H       1  UNL1        0.0274
     79 H          10.9496    4.4353    0.0000 H       1  UNL1        0.0274
     80 H          11.4347    2.1338    0.0000 H       1  UNL1        0.0274
     81 H          12.3102    2.0864    0.0000 H       1  UNL1        0.0274
     82 H          12.3576    2.9619    0.0000 H       1  UNL1        0.0274
@<TRIPOS>BOND
     1    20     1    1
     2     1    73    1
     3     2    23    2
     4     3     4    1
     5     3     5    1
     6     3     9    1
     7     3    16    1
     8     4     6    1
     9     4    12    1
    10     4    19    1
    11     5     7    1
    12     5    11    1
    13     5    33    1
    14     6    10    1
    15     6    13    1
    16     6    34    1
    17     7     8    1
    18     7    17    1
    19     7    21    1
    20     8    14    1
    21     8    18    1
    22     8    35    1
    23     9    14    1
    24     9    36    1
    25     9    37    1
    26    10    15    1
    27    10    20    1
    28    10    38    1
    29    11    13    1
    30    11    39    1
    31    11    40    1
    32    12    15    1
    33    12    41    1
    34    12    42    1
    35    13    43    1
    36    13    44    1
    37    14    45    1
    38    14    46    1
    39    15    47    1
    40    15    48    1
    41    16    49    1
    42    16    50    1
    43    16    51    1
    44    17    22    1
    45    17    52    1
    46    17    53    1
    47    18    23    1
    48    18    24    1
    49    18    25    1
    50    19    54    1
    51    19    55    1
    52    19    56    1
    53    20    26    1
    54    20    27    1
    55    21    57    1
    56    21    58    1
    57    21    59    1
    58    22    23    1
    59    22    60    1
    60    22    61    1
    61    24    62    1
    62    24    63    1
    63    24    64    1
    64    25    65    1
    65    25    66    1
    66    25    67    1
    67    26    28    1
    68    26    68    1
    69    26    69    1
    70    27    70    1
    71    27    71    1
    72    27    72    1
    73    28    29    1
    74    28    74    1
    75    28    75    1
    76    29    30    2
    77    29    76    1
    78    30    31    1
    79    30    32    1
    80    31    77    1
    81    31    78    1
    82    31    79    1
    83    32    80    1
    84    32    81    1
    85    32    82    1
