@<TRIPOS>MOLECULE
IMPHY005225
 63 67 0 0 0
SMALL
GASTEIGER

@<TRIPOS>ATOM
      1 O           9.7082    1.3526    0.0000 O.3     1  UNL1       -0.3580
      2 O           9.0532    4.0343    0.0000 O.3     1  UNL1       -0.3885
      3 O           5.9670    1.7890    0.0000 O.2     1  UNL1       -0.4709
      4 O           6.8671    0.2647    0.0000 O.3     1  UNL1       -0.3095
      5 O           8.5136   -0.2514    0.0000 O.3     1  UNL1       -0.4586
      6 O           5.1350    0.2647    0.0000 O.3     1  UNL1       -0.3404
      7 O           6.8671   -1.7353    0.0000 O.3     1  UNL1       -0.3841
      8 O           5.1350   -2.7353    0.0000 O.3     1  UNL1       -0.3864
      9 O          10.1039    0.4348    0.0000 O.2     1  UNL1       -0.2456
     10 O           3.4030   -1.7353    0.0000 O.3     1  UNL1       -0.3865
     11 O           2.5369   -0.2353    0.0000 O.3     1  UNL1       -0.3924
     12 C           8.7145    1.4690    0.0000 C.3     1  UNL1        0.1413
     13 C           9.3116    2.2711    0.0000 C.3     1  UNL1        0.1185
     14 C           7.7671    1.7890    0.0000 C.3     1  UNL1        0.0652
     15 C           7.7787    2.7889    0.0000 C.3     1  UNL1        0.0201
     16 C           8.7333    3.0869    0.0000 C.3     1  UNL1        0.0910
     17 C           8.1174    0.6668    0.0000 C.3     1  UNL1        0.1247
     18 C           6.8671    1.2647    0.0000 C.3     1  UNL1        0.2097
     19 C           6.8910    3.3338    0.0000 C.2     1  UNL1       -0.0434
     20 C           5.9790    2.8305    0.0000 C.2     1  UNL1        0.0843
     21 C           6.0010   -0.2353    0.0000 C.3     1  UNL1        0.1918
     22 C           6.0010   -1.2353    0.0000 C.3     1  UNL1        0.1342
     23 C           9.5068   -0.3674    0.0000 C.2     1  UNL1        0.3320
     24 C           5.1350   -1.7353    0.0000 C.3     1  UNL1        0.1141
     25 C           4.2690   -0.2353    0.0000 C.3     1  UNL1        0.1130
     26 C           4.2690   -1.2353    0.0000 C.3     1  UNL1        0.1119
     27 C           9.9030   -1.2856    0.0000 C.2     1  UNL1        0.0231
     28 C           3.4030    0.2647    0.0000 C.3     1  UNL1        0.0730
     29 C          10.8962   -1.4016    0.0000 C.2     1  UNL1       -0.0478
     30 C          11.2924   -2.3198    0.0000 C.ar    1  UNL1       -0.0248
     31 C          10.6953   -3.1220    0.0000 C.ar    1  UNL1       -0.0546
     32 C          12.2856   -2.4358    0.0000 C.ar    1  UNL1       -0.0546
     33 C          11.0914   -4.0402    0.0000 C.ar    1  UNL1       -0.0612
     34 C          12.6818   -3.3540    0.0000 C.ar    1  UNL1       -0.0612
     35 C          12.0847   -4.1562    0.0000 C.ar    1  UNL1       -0.0617
     36 H          10.0526    2.6877    0.0000 H       1  UNL1        0.0652
     37 H           7.8527    0.9433    0.0000 H       1  UNL1        0.0398
     38 H           7.8838    3.6324    0.0000 H       1  UNL1        0.0375
     39 H           9.3467    3.1768    0.0000 H       1  UNL1        0.0626
     40 H           7.6919    1.1177    0.0000 H       1  UNL1        0.0728
     41 H           7.5995    0.3261    0.0000 H       1  UNL1        0.0728
     42 H           7.4046    0.9557    0.0000 H       1  UNL1        0.1060
     43 H           6.9053    3.9537    0.0000 H       1  UNL1        0.0606
     44 H           9.6611    4.1562    0.0000 H       1  UNL1        0.2099
     45 H           5.4470    3.1488    0.0000 H       1  UNL1        0.1021
     46 H           6.0010    0.3847    0.0000 H       1  UNL1        0.0939
     47 H           6.0010   -1.8553    0.0000 H       1  UNL1        0.0671
     48 H           4.5981   -2.0453    0.0000 H       1  UNL1        0.0648
     49 H           4.2690    0.3847    0.0000 H       1  UNL1        0.0647
     50 H           3.7320   -0.9253    0.0000 H       1  UNL1        0.0647
     51 H           6.8671   -2.3553    0.0000 H       1  UNL1        0.2101
     52 H           3.8015    0.7396    0.0000 H       1  UNL1        0.0584
     53 H           3.0044    0.7396    0.0000 H       1  UNL1        0.0584
     54 H           9.5328   -1.7830    0.0000 H       1  UNL1        0.0689
     55 H           4.5981   -3.0453    0.0000 H       1  UNL1        0.2100
     56 H           3.4030   -2.3553    0.0000 H       1  UNL1        0.2100
     57 H          11.2664   -0.9043    0.0000 H       1  UNL1        0.0626
     58 H           2.0000    0.0747    0.0000 H       1  UNL1        0.2095
     59 H          10.0795   -3.0500    0.0000 H       1  UNL1        0.0623
     60 H          12.6558   -1.9385    0.0000 H       1  UNL1        0.0623
     61 H          10.7212   -4.5375    0.0000 H       1  UNL1        0.0618
     62 H          13.2976   -3.4260    0.0000 H       1  UNL1        0.0618
     63 H          12.3303   -4.7255    0.0000 H       1  UNL1        0.0618
@<TRIPOS>BOND
     1     1    12    1
     2     1    13    1
     3    16     2    1
     4     2    44    1
     5     3    18    1
     6     3    20    1
     7    18     4    1
     8    21     4    1
     9     5    17    1
    10     5    23    1
    11     6    21    1
    12     6    25    1
    13    22     7    1
    14     7    51    1
    15    24     8    1
    16     8    55    1
    17     9    23    2
    18    26    10    1
    19    10    56    1
    20    11    28    1
    21    11    58    1
    22    12    13    1
    23    12    14    1
    24    12    17    1
    25    13    16    1
    26    13    36    1
    27    14    15    1
    28    14    18    1
    29    14    37    1
    30    15    16    1
    31    15    19    1
    32    15    38    1
    33    16    39    1
    34    17    40    1
    35    17    41    1
    36    18    42    1
    37    19    20    2
    38    19    43    1
    39    20    45    1
    40    21    22    1
    41    21    46    1
    42    22    24    1
    43    22    47    1
    44    23    27    1
    45    24    26    1
    46    24    48    1
    47    25    26    1
    48    25    28    1
    49    25    49    1
    50    26    50    1
    51    27    29    2
    52    27    54    1
    53    28    52    1
    54    28    53    1
    55    29    30    1
    56    29    57    1
    57    30    31   ar
    58    30    32   ar
    59    31    33   ar
    60    31    59    1
    61    32    34   ar
    62    32    60    1
    63    33    35   ar
    64    33    61    1
    65    34    35   ar
    66    34    62    1
    67    35    63    1
