@<TRIPOS>MOLECULE
IMPHY005101
 87 91 0 0 0
SMALL
GASTEIGER

@<TRIPOS>ATOM
      1 O          10.5680    1.1507    0.0000 O.2     1  UNL1       -0.2916
      2 O           9.8100   -2.6638    0.0000 O.3     1  UNL1       -0.5056
      3 O           9.8100    0.8003    0.0000 O.3     1  UNL1       -0.5064
      4 O          10.6500    2.3873    0.0000 O.3     1  UNL1       -0.5057
      5 O          16.0062    1.0682    0.0000 O.3     1  UNL1       -0.5068
      6 O          13.9052    3.5721    0.0000 O.3     1  UNL1       -0.5064
      7 O           8.3100   -3.5298    0.0000 O.2     1  UNL1       -0.2872
      8 O           5.3100   -5.2618    0.0000 O.3     1  UNL1       -0.5061
      9 O           2.3100   -3.5298    0.0000 O.3     1  UNL1       -0.5066
     10 C          11.6760   -0.4318    0.0000 C.3     1  UNL1        0.0398
     11 C          12.5421   -0.9318    0.0000 C.3     1  UNL1       -0.0015
     12 C          10.8100   -0.9318    0.0000 C.3     1  UNL1        0.0198
     13 C          12.5421   -1.9318    0.0000 C.3     1  UNL1       -0.0245
     14 C          11.6760   -2.4318    0.0000 C.2     1  UNL1       -0.0753
     15 C          10.8100   -1.9318    0.0000 C.2     1  UNL1       -0.0767
     16 C          13.4081   -0.4318    0.0000 C.ar    1  UNL1       -0.0430
     17 C           9.8100   -0.9318    0.0000 C.ar    1  UNL1        0.0436
     18 C          11.3340    0.5079    0.0000 C.2     1  UNL1        0.1712
     19 C          11.6760   -3.4318    0.0000 C.3     1  UNL1       -0.0437
     20 C          11.9768    1.2740    0.0000 C.ar    1  UNL1        0.0596
     21 C           9.3100   -1.7977    0.0000 C.ar    1  UNL1        0.1348
     22 C          14.2741   -0.9318    0.0000 C.ar    1  UNL1       -0.0548
     23 C          13.4081    0.5682    0.0000 C.ar    1  UNL1       -0.0548
     24 C           9.3100   -0.0658    0.0000 C.ar    1  UNL1        0.1241
     25 C           8.3100   -1.7978    0.0000 C.ar    1  UNL1        0.0635
     26 C          11.6348    2.2136    0.0000 C.ar    1  UNL1        0.1342
     27 C           8.3100   -0.0658    0.0000 C.ar    1  UNL1       -0.0190
     28 C          15.1401   -0.4318    0.0000 C.ar    1  UNL1       -0.0199
     29 C          14.2741    1.0682    0.0000 C.ar    1  UNL1       -0.0199
     30 C          12.9616    1.1003    0.0000 C.ar    1  UNL1       -0.0443
     31 C           7.8100   -0.9318    0.0000 C.ar    1  UNL1       -0.0440
     32 C          15.1401    0.5682    0.0000 C.ar    1  UNL1        0.1169
     33 C          12.2776    2.9797    0.0000 C.ar    1  UNL1        0.0398
     34 C          13.6044    1.8664    0.0000 C.ar    1  UNL1       -0.0190
     35 C          13.2624    2.8060    0.0000 C.ar    1  UNL1        0.1238
     36 C           7.8100   -2.6637    0.0000 C.2     1  UNL1        0.1896
     37 C          11.9355    3.9194    0.0000 C.3     1  UNL1       -0.0023
     38 C           6.8100   -2.6638    0.0000 C.2     1  UNL1       -0.0136
     39 C          10.9507    4.0930    0.0000 C.2     1  UNL1       -0.0807
     40 C          10.6087    5.0327    0.0000 C.2     1  UNL1       -0.0793
     41 C           6.3100   -3.5298    0.0000 C.2     1  UNL1       -0.0475
     42 C           9.6239    5.2064    0.0000 C.3     1  UNL1       -0.0440
     43 C          11.2515    5.7988    0.0000 C.3     1  UNL1       -0.0440
     44 C           5.3100   -3.5298    0.0000 C.ar    1  UNL1        0.0168
     45 C           4.8100   -4.3958    0.0000 C.ar    1  UNL1        0.1274
     46 C           4.8100   -2.6638    0.0000 C.ar    1  UNL1       -0.0477
     47 C           3.8100   -4.3959    0.0000 C.ar    1  UNL1        0.0219
     48 C           3.8100   -2.6638    0.0000 C.ar    1  UNL1       -0.0194
     49 C           3.3100   -3.5298    0.0000 C.ar    1  UNL1        0.1204
     50 H          12.1510   -0.0332    0.0000 H       1  UNL1        0.0396
     51 H          12.5421   -0.3118    0.0000 H       1  UNL1        0.0359
     52 H          10.5900   -0.1107    0.0000 H       1  UNL1        0.0401
     53 H          12.7541   -2.5144    0.0000 H       1  UNL1        0.0316
     54 H          13.1526   -1.8241    0.0000 H       1  UNL1        0.0316
     55 H          10.2731   -2.2418    0.0000 H       1  UNL1        0.0578
     56 H          11.0560   -3.4318    0.0000 H       1  UNL1        0.0274
     57 H          11.6760   -4.0518    0.0000 H       1  UNL1        0.0274
     58 H          12.2960   -3.4318    0.0000 H       1  UNL1        0.0274
     59 H          14.2741   -1.5518    0.0000 H       1  UNL1        0.0622
     60 H          12.8711    0.8782    0.0000 H       1  UNL1        0.0622
     61 H           8.0000    0.4712    0.0000 H       1  UNL1        0.0654
     62 H          15.6771   -0.7418    0.0000 H       1  UNL1        0.0654
     63 H          14.2741    1.6882    0.0000 H       1  UNL1        0.0654
     64 H          13.1737    0.5177    0.0000 H       1  UNL1        0.0627
     65 H           7.1900   -0.9318    0.0000 H       1  UNL1        0.0627
     66 H           9.5000   -3.2007    0.0000 H       1  UNL1        0.2922
     67 H           9.5000    1.3372    0.0000 H       1  UNL1        0.2921
     68 H          14.2150    1.7587    0.0000 H       1  UNL1        0.0654
     69 H          12.5461    4.0270    0.0000 H       1  UNL1        0.0358
     70 H          11.9355    4.5394    0.0000 H       1  UNL1        0.0358
     71 H          10.4379    2.9699    0.0000 H       1  UNL1        0.2922
     72 H          16.5431    0.7582    0.0000 H       1  UNL1        0.2921
     73 H           6.5000   -2.1269    0.0000 H       1  UNL1        0.0656
     74 H          10.5522    3.6181    0.0000 H       1  UNL1        0.0575
     75 H          14.5157    3.4644    0.0000 H       1  UNL1        0.2921
     76 H           6.6200   -4.0667    0.0000 H       1  UNL1        0.0626
     77 H           9.7316    5.8170    0.0000 H       1  UNL1        0.0274
     78 H           9.0133    5.3140    0.0000 H       1  UNL1        0.0274
     79 H           9.5162    4.5958    0.0000 H       1  UNL1        0.0274
     80 H          11.7264    5.4002    0.0000 H       1  UNL1        0.0274
     81 H          11.6500    6.2737    0.0000 H       1  UNL1        0.0274
     82 H          10.7766    6.1973    0.0000 H       1  UNL1        0.0274
     83 H           5.1200   -2.1269    0.0000 H       1  UNL1        0.0626
     84 H           3.5000   -4.9328    0.0000 H       1  UNL1        0.0691
     85 H           3.5000   -2.1269    0.0000 H       1  UNL1        0.0654
     86 H           5.0000   -5.7988    0.0000 H       1  UNL1        0.2922
     87 H           2.0000   -2.9929    0.0000 H       1  UNL1        0.2921
@<TRIPOS>BOND
     1     1    18    2
     2     2    21    1
     3     2    66    1
     4     3    24    1
     5     3    67    1
     6     4    26    1
     7     4    71    1
     8     5    32    1
     9     5    72    1
    10     6    35    1
    11     6    75    1
    12     7    36    2
    13     8    45    1
    14     8    86    1
    15     9    49    1
    16     9    87    1
    17    10    11    1
    18    10    12    1
    19    10    18    1
    20    10    50    1
    21    11    13    1
    22    11    16    1
    23    11    51    1
    24    12    15    1
    25    12    17    1
    26    12    52    1
    27    13    14    1
    28    13    53    1
    29    13    54    1
    30    14    15    2
    31    14    19    1
    32    15    55    1
    33    16    22   ar
    34    16    23   ar
    35    17    21   ar
    36    17    24   ar
    37    18    20    1
    38    19    56    1
    39    19    57    1
    40    19    58    1
    41    20    26   ar
    42    20    30   ar
    43    21    25   ar
    44    22    28   ar
    45    22    59    1
    46    23    29   ar
    47    23    60    1
    48    24    27   ar
    49    25    31   ar
    50    25    36    1
    51    26    33   ar
    52    27    31   ar
    53    27    61    1
    54    28    32   ar
    55    28    62    1
    56    29    32   ar
    57    29    63    1
    58    30    34   ar
    59    30    64    1
    60    31    65    1
    61    33    35   ar
    62    33    37    1
    63    34    35   ar
    64    34    68    1
    65    36    38    1
    66    37    39    1
    67    37    69    1
    68    37    70    1
    69    38    41    2
    70    38    73    1
    71    39    40    2
    72    39    74    1
    73    40    42    1
    74    40    43    1
    75    41    44    1
    76    41    76    1
    77    42    77    1
    78    42    78    1
    79    42    79    1
    80    43    80    1
    81    43    81    1
    82    43    82    1
    83    44    45   ar
    84    44    46   ar
    85    45    47   ar
    86    46    48   ar
    87    46    83    1
    88    47    49   ar
    89    47    84    1
    90    48    49   ar
    91    48    85    1
