@<TRIPOS>MOLECULE
IMPHY005775
 71 76 0 0 0
SMALL
GASTEIGER

@<TRIPOS>ATOM
      1 O           5.5954   -2.5456    0.0000 O.3     1  UNL1       -0.3448
      2 O           3.9300   -1.4644    0.0000 O.3     1  UNL1       -0.3480
      3 O           5.7968    1.1892    0.0000 O.2     1  UNL1       -0.2968
      4 O          12.0027    2.8336    0.0000 O.3     1  UNL1       -0.3915
      5 C           6.6628   -0.3108    0.0000 C.3     1  UNL1        0.0349
      6 C           7.5288   -0.8108    0.0000 C.3     1  UNL1       -0.0228
      7 C           5.9258   -0.9778    0.0000 C.3     1  UNL1        0.0052
      8 C           8.3948   -0.3108    0.0000 C.3     1  UNL1       -0.0298
      9 C           6.3309   -1.8856    0.0000 C.3     1  UNL1        0.0664
     10 C           7.3196   -1.7826    0.0000 C.3     1  UNL1       -0.0222
     11 C           8.3948    0.6892    0.0000 C.3     1  UNL1       -0.0219
     12 C           4.9434   -1.0845    0.0000 C.3     1  UNL1        0.0164
     13 C           9.2888    1.2239    0.0000 C.3     1  UNL1       -0.0074
     14 C           4.7396   -2.0515    0.0000 C.3     1  UNL1        0.1732
     15 C           6.6628    0.6892    0.0000 C.2     1  UNL1        0.1401
     16 C           7.5288    1.1892    0.0000 C.3     1  UNL1        0.0103
     17 C           9.2888   -0.8454    0.0000 C.3     1  UNL1       -0.0311
     18 C           5.7968    0.1892    0.0000 C.3     1  UNL1       -0.0522
     19 C          10.1949    0.7101    0.0000 C.2     1  UNL1       -0.0648
     20 C           9.2637    2.3086    0.0000 C.3     1  UNL1       -0.0413
     21 C           4.6359   -3.0461    0.0000 C.3     1  UNL1        0.0020
     22 C           4.2723   -0.3431    0.0000 C.3     1  UNL1       -0.0572
     23 C          10.1949   -0.3316    0.0000 C.2     1  UNL1       -0.0839
     24 C           8.4189    1.7172    0.0000 C.3     1  UNL1       -0.0556
     25 C          11.1386    1.2453    0.0000 C.3     1  UNL1       -0.0051
     26 C          10.1949    2.8655    0.0000 C.3     1  UNL1       -0.0258
     27 C           3.7227   -3.4536    0.0000 C.3     1  UNL1       -0.0435
     28 C          11.1386    2.3303    0.0000 C.3     1  UNL1        0.0590
     29 C           2.9132   -2.8665    0.0000 C.3     1  UNL1       -0.0201
     30 C           3.0169   -1.8719    0.0000 C.3     1  UNL1        0.0535
     31 C           2.0000   -3.2741    0.0000 C.3     1  UNL1       -0.0603
     32 H           8.2158   -1.3113    0.0000 H       1  UNL1        0.0314
     33 H           5.5777   -0.2024    0.0000 H       1  UNL1        0.0339
     34 H           8.3883   -1.1607    0.0000 H       1  UNL1        0.0310
     35 H           6.6756   -2.6626    0.0000 H       1  UNL1        0.0600
     36 H           7.3187   -2.4026    0.0000 H       1  UNL1        0.0293
     37 H           7.9361   -1.8486    0.0000 H       1  UNL1        0.0293
     38 H           9.1342    0.2699    0.0000 H       1  UNL1        0.0316
     39 H           4.3448   -1.2463    0.0000 H       1  UNL1        0.0354
     40 H           7.9274    1.6642    0.0000 H       1  UNL1        0.0345
     41 H           7.1303    1.6642    0.0000 H       1  UNL1        0.0345
     42 H           8.8842   -1.3152    0.0000 H       1  UNL1        0.0310
     43 H           9.6824   -1.3244    0.0000 H       1  UNL1        0.0310
     44 H           6.1068    0.7262    0.0000 H       1  UNL1        0.0239
     45 H           5.2598    0.4992    0.0000 H       1  UNL1        0.0239
     46 H           5.4868   -0.3477    0.0000 H       1  UNL1        0.0239
     47 H           9.0412    2.8873    0.0000 H       1  UNL1        0.0274
     48 H           8.6555    2.1884    0.0000 H       1  UNL1        0.0274
     49 H           4.7864   -3.6476    0.0000 H       1  UNL1        0.0317
     50 H           5.2544   -3.0023    0.0000 H       1  UNL1        0.0317
     51 H           4.7320    0.0729    0.0000 H       1  UNL1        0.0234
     52 H           3.8562    0.1165    0.0000 H       1  UNL1        0.0234
     53 H           3.8126   -0.7592    0.0000 H       1  UNL1        0.0234
     54 H          10.7306   -0.6436    0.0000 H       1  UNL1        0.0572
     55 H           8.7248    2.2565    0.0000 H       1  UNL1        0.0238
     56 H           7.8796    2.0231    0.0000 H       1  UNL1        0.0238
     57 H           8.1131    1.1779    0.0000 H       1  UNL1        0.0238
     58 H          11.3477    0.6616    0.0000 H       1  UNL1        0.0335
     59 H          11.7495    1.3514    0.0000 H       1  UNL1        0.0335
     60 H          10.5885    3.3446    0.0000 H       1  UNL1        0.0290
     61 H           9.7903    3.3353    0.0000 H       1  UNL1        0.0290
     62 H           3.2771   -3.8847    0.0000 H       1  UNL1        0.0270
     63 H           4.0699   -3.9673    0.0000 H       1  UNL1        0.0270
     64 H          11.1351    2.9503    0.0000 H       1  UNL1        0.0596
     65 H           2.4113   -2.5026    0.0000 H       1  UNL1        0.0320
     66 H           2.8664   -1.2705    0.0000 H       1  UNL1        0.0563
     67 H           2.3984   -1.9157    0.0000 H       1  UNL1        0.0563
     68 H           1.7473   -2.7079    0.0000 H       1  UNL1        0.0233
     69 H           1.4338   -3.5267    0.0000 H       1  UNL1        0.0233
     70 H           2.2527   -3.8402    0.0000 H       1  UNL1        0.0233
     71 H          12.0003    3.4536    0.0000 H       1  UNL1        0.2098
@<TRIPOS>BOND
     1     1     9    1
     2    14     1    1
     3     2    14    1
     4     2    30    1
     5     3    15    2
     6    28     4    1
     7     4    71    1
     8     5     6    1
     9     5     7    1
    10     5    15    1
    11     5    18    1
    12     6     8    1
    13     6    10    1
    14     6    32    1
    15     7     9    1
    16     7    12    1
    17     7    33    1
    18     8    11    1
    19     8    17    1
    20     8    34    1
    21     9    10    1
    22     9    35    1
    23    10    36    1
    24    10    37    1
    25    11    13    1
    26    11    16    1
    27    11    38    1
    28    12    14    1
    29    12    22    1
    30    12    39    1
    31    13    19    1
    32    13    20    1
    33    13    24    1
    34    14    21    1
    35    15    16    1
    36    16    40    1
    37    16    41    1
    38    17    23    1
    39    17    42    1
    40    17    43    1
    41    18    44    1
    42    18    45    1
    43    18    46    1
    44    19    23    2
    45    19    25    1
    46    20    26    1
    47    20    47    1
    48    20    48    1
    49    21    27    1
    50    21    49    1
    51    21    50    1
    52    22    51    1
    53    22    52    1
    54    22    53    1
    55    23    54    1
    56    24    55    1
    57    24    56    1
    58    24    57    1
    59    25    28    1
    60    25    58    1
    61    25    59    1
    62    26    28    1
    63    26    60    1
    64    26    61    1
    65    27    29    1
    66    27    62    1
    67    27    63    1
    68    28    64    1
    69    29    30    1
    70    29    31    1
    71    29    65    1
    72    30    66    1
    73    30    67    1
    74    31    68    1
    75    31    69    1
    76    31    70    1
