@<TRIPOS>MOLECULE
IMPHY008182
 40 43 0 0 0
SMALL
GASTEIGER

@<TRIPOS>ATOM
      1 O           4.6176   -2.4065    0.0000 O.3     1  UNL1       -0.4814
      2 O           2.8718    0.7508    0.0000 O.3     1  UNL1       -0.4942
      3 O           3.7759    2.2477    0.0000 O.2     1  UNL1       -0.2864
      4 N           6.3740    0.7477    0.0000 N.ar    1  UNL1       -0.3533
      5 C           5.5572   -2.9490    0.0000 C.3     1  UNL1        0.1235
      6 C           5.5240   -0.7938    0.0000 C.ar    1  UNL1        0.0407
      7 C           5.5080    0.2477    0.0000 C.ar    1  UNL1        0.0649
      8 C           4.6260   -1.3216    0.0000 C.ar    1  UNL1        0.1343
      9 C           4.6419    0.7477    0.0000 C.ar    1  UNL1        0.0879
     10 C           6.4927   -2.3993    0.0000 C.2     1  UNL1       -0.0408
     11 C           6.4760   -1.3144    0.0000 C.2     1  UNL1       -0.0493
     12 C           3.7319    0.2409    0.0000 C.ar    1  UNL1        0.1364
     13 C           6.0606   -3.8131    0.0000 C.3     1  UNL1       -0.0215
     14 C           5.0606   -3.8170    0.0000 C.3     1  UNL1       -0.0215
     15 C           3.7239   -0.8007    0.0000 C.ar    1  UNL1        0.0232
     16 C           6.3740    1.7477    0.0000 C.ar    1  UNL1        0.0506
     17 C           4.6419    1.7477    0.0000 C.ar    1  UNL1        0.2006
     18 C           5.5080    2.2477    0.0000 C.ar    1  UNL1        0.0457
     19 C           7.2840    2.2546    0.0000 C.ar    1  UNL1       -0.0377
     20 C           5.4919    3.2892    0.0000 C.ar    1  UNL1       -0.0489
     21 C           7.2920    3.2962    0.0000 C.ar    1  UNL1       -0.0598
     22 C           6.3899    3.8170    0.0000 C.ar    1  UNL1       -0.0610
     23 C           2.0000    0.2609    0.0000 C.3     1  UNL1        0.0788
     24 H           7.0332   -2.7031    0.0000 H       1  UNL1        0.0611
     25 H           7.0068   -0.9941    0.0000 H       1  UNL1        0.0623
     26 H           6.9109    0.4377    0.0000 H       1  UNL1        0.1659
     27 H           3.1858   -1.1087    0.0000 H       1  UNL1        0.0691
     28 H           5.5248   -4.1252    0.0000 H       1  UNL1        0.0271
     29 H           6.3726   -4.3488    0.0000 H       1  UNL1        0.0271
     30 H           6.5963   -3.5010    0.0000 H       1  UNL1        0.0271
     31 H           4.5225   -3.5090    0.0000 H       1  UNL1        0.0271
     32 H           4.7527   -4.3551    0.0000 H       1  UNL1        0.0271
     33 H           5.5987   -4.1249    0.0000 H       1  UNL1        0.0271
     34 H           7.8173    1.9384    0.0000 H       1  UNL1        0.0638
     35 H           4.9514    3.5930    0.0000 H       1  UNL1        0.0625
     36 H           7.8301    3.6041    0.0000 H       1  UNL1        0.0618
     37 H           6.3876    4.4370    0.0000 H       1  UNL1        0.0618
     38 H           1.6962    0.8014    0.0000 H       1  UNL1        0.0660
     39 H           1.4595   -0.0429    0.0000 H       1  UNL1        0.0660
     40 H           2.3038   -0.2796    0.0000 H       1  UNL1        0.0660
@<TRIPOS>BOND
     1     1     5    1
     2     1     8    1
     3     2    12    1
     4     2    23    1
     5     3    17    2
     6     4     7   ar
     7     4    16   ar
     8     4    26    1
     9     5    10    1
    10     5    13    1
    11     5    14    1
    12     6     7   ar
    13     6     8   ar
    14     6    11    1
    15     7     9   ar
    16     8    15   ar
    17     9    12   ar
    18     9    17   ar
    19    10    11    2
    20    10    24    1
    21    11    25    1
    22    12    15   ar
    23    13    28    1
    24    13    29    1
    25    13    30    1
    26    14    31    1
    27    14    32    1
    28    14    33    1
    29    15    27    1
    30    16    18   ar
    31    16    19   ar
    32    17    18   ar
    33    18    20   ar
    34    19    21   ar
    35    19    34    1
    36    20    22   ar
    37    20    35    1
    38    21    22   ar
    39    21    36    1
    40    22    37    1
    41    23    38    1
    42    23    39    1
    43    23    40    1
