@<TRIPOS>MOLECULE
IMPHY008138
 34 36 0 0 0
SMALL
GASTEIGER

@<TRIPOS>ATOM
      1 O           6.0290   -0.9259    0.0000 O.2     1  UNL1       -0.4470
      2 O           4.2690    2.1087    0.0000 O.3     1  UNL1       -0.5055
      3 O           4.2690   -1.8913    0.0000 O.3     1  UNL1       -0.5009
      4 O           2.5369   -0.8913    0.0000 O.3     1  UNL1       -0.5030
      5 O           7.7991    1.1329    0.0000 O.3     1  UNL1       -0.5007
      6 O           6.0174    2.1433    0.0000 O.2     1  UNL1       -0.2830
      7 C           5.1350    0.6087    0.0000 C.ar    1  UNL1        0.1131
      8 C           5.1350   -0.3913    0.0000 C.ar    1  UNL1        0.1879
      9 C           4.2690    1.1087    0.0000 C.ar    1  UNL1        0.1379
     10 C           3.4030    0.6087    0.0000 C.ar    1  UNL1        0.0369
     11 C           4.2690   -0.8913    0.0000 C.ar    1  UNL1        0.2027
     12 C           6.9350   -0.4121    0.0000 C.ar    1  UNL1        0.1808
     13 C           6.0290    1.1434    0.0000 C.ar    1  UNL1        0.2380
     14 C           3.4030   -0.3913    0.0000 C.ar    1  UNL1        0.1685
     15 C           6.9350    0.6296    0.0000 C.ar    1  UNL1        0.2082
     16 C           7.7991   -0.9154    0.0000 C.ar    1  UNL1        0.0211
     17 C           2.5369    1.1087    0.0000 C.3     1  UNL1       -0.0326
     18 C           7.7953   -1.9154    0.0000 C.ar    1  UNL1       -0.0510
     19 C           8.6671   -0.4188    0.0000 C.ar    1  UNL1       -0.0510
     20 C           8.6594   -2.4187    0.0000 C.ar    1  UNL1       -0.0611
     21 C           9.5312   -0.9221    0.0000 C.ar    1  UNL1       -0.0611
     22 C           9.5273   -1.9221    0.0000 C.ar    1  UNL1       -0.0617
     23 H           2.8469    1.6457    0.0000 H       1  UNL1        0.0280
     24 H           2.0000    1.4187    0.0000 H       1  UNL1        0.0280
     25 H           2.2269    0.5718    0.0000 H       1  UNL1        0.0280
     26 H           7.2571   -2.2233    0.0000 H       1  UNL1        0.0625
     27 H           8.6694    0.2012    0.0000 H       1  UNL1        0.0625
     28 H           3.7320    2.4187    0.0000 H       1  UNL1        0.2922
     29 H           3.7320   -2.2013    0.0000 H       1  UNL1        0.2924
     30 H           8.6570   -3.0387    0.0000 H       1  UNL1        0.0618
     31 H          10.0693   -0.6142    0.0000 H       1  UNL1        0.0618
     32 H           2.0000   -0.5813    0.0000 H       1  UNL1        0.2923
     33 H           7.7967    1.7529    0.0000 H       1  UNL1        0.2924
     34 H          10.0630   -2.2342    0.0000 H       1  UNL1        0.0618
@<TRIPOS>BOND
     1     1     8   ar
     2     1    12   ar
     3     2     9    1
     4     2    28    1
     5     3    11    1
     6     3    29    1
     7     4    14    1
     8     4    32    1
     9     5    15    1
    10     5    33    1
    11     6    13    2
    12     7     8   ar
    13     7     9   ar
    14     7    13   ar
    15     8    11   ar
    16     9    10   ar
    17    10    14   ar
    18    10    17    1
    19    11    14   ar
    20    12    15   ar
    21    12    16    1
    22    13    15   ar
    23    16    18   ar
    24    16    19   ar
    25    17    23    1
    26    17    24    1
    27    17    25    1
    28    18    20   ar
    29    18    26    1
    30    19    21   ar
    31    19    27    1
    32    20    22   ar
    33    20    30    1
    34    21    22   ar
    35    21    31    1
    36    22    34    1
