@<TRIPOS>MOLECULE
IMPHY002854
 51 51 0 0 0
SMALL
GASTEIGER

@<TRIPOS>ATOM
      1 O           4.2690   -1.1550    0.0000 O.3     1  UNL1       -0.3405
      2 O           6.0010   -1.1550    0.0000 O.3     1  UNL1       -0.3444
      3 O           4.2690   -4.1550    0.0000 O.3     1  UNL1       -0.3864
      4 O           2.5369   -3.1550    0.0000 O.3     1  UNL1       -0.3865
      5 O           6.0010   -3.1550    0.0000 O.3     1  UNL1       -0.3841
      6 O           2.5369   -0.1550    0.0000 O.3     1  UNL1       -0.3924
      7 O           9.4651    3.8450    0.0000 O.3     1  UNL1       -0.3848
      8 C           4.2690   -3.1550    0.0000 C.3     1  UNL1        0.1141
      9 C           3.4030   -2.6550    0.0000 C.3     1  UNL1        0.1119
     10 C           5.1350   -2.6550    0.0000 C.3     1  UNL1        0.1341
     11 C           3.4030   -1.6550    0.0000 C.3     1  UNL1        0.1130
     12 C           5.1350   -1.6550    0.0000 C.3     1  UNL1        0.1883
     13 C           2.5369   -1.1550    0.0000 C.3     1  UNL1        0.0730
     14 C           6.0010   -0.1550    0.0000 C.3     1  UNL1        0.0716
     15 C           6.8671    0.3450    0.0000 C.2     1  UNL1       -0.0511
     16 C           7.7331    2.8450    0.0000 C.3     1  UNL1       -0.0172
     17 C           8.5991    3.3450    0.0000 C.3     1  UNL1        0.0814
     18 C           7.7331    1.8450    0.0000 C.3     1  UNL1       -0.0316
     19 C           6.8671    1.3450    0.0000 C.2     1  UNL1       -0.0828
     20 C           7.7331   -0.1550    0.0000 C.3     1  UNL1       -0.0416
     21 C           9.0991    2.4790    0.0000 C.3     1  UNL1       -0.0324
     22 C           8.0991    4.2110    0.0000 C.2     1  UNL1       -0.0602
     23 C           7.0991    4.2110    0.0000 C.2     1  UNL1       -0.1000
     24 H           4.8059   -3.4650    0.0000 H       1  UNL1        0.0648
     25 H           3.4030   -3.2750    0.0000 H       1  UNL1        0.0647
     26 H           5.6720   -2.3450    0.0000 H       1  UNL1        0.0671
     27 H           3.4030   -1.0350    0.0000 H       1  UNL1        0.0647
     28 H           5.1350   -1.0350    0.0000 H       1  UNL1        0.0938
     29 H           1.9264   -1.0473    0.0000 H       1  UNL1        0.0584
     30 H           2.3249   -1.7376    0.0000 H       1  UNL1        0.0584
     31 H           3.7320   -4.4650    0.0000 H       1  UNL1        0.2100
     32 H           2.0000   -2.8450    0.0000 H       1  UNL1        0.2100
     33 H           6.5380   -2.8450    0.0000 H       1  UNL1        0.2101
     34 H           5.7890    0.4276    0.0000 H       1  UNL1        0.0608
     35 H           5.3905   -0.2627    0.0000 H       1  UNL1        0.0608
     36 H           7.5210    3.4276    0.0000 H       1  UNL1        0.0299
     37 H           7.1225    2.7373    0.0000 H       1  UNL1        0.0299
     38 H           7.9451    1.2624    0.0000 H       1  UNL1        0.0308
     39 H           8.3437    1.9527    0.0000 H       1  UNL1        0.0308
     40 H           2.0000    0.1550    0.0000 H       1  UNL1        0.2095
     41 H           6.3301    1.6550    0.0000 H       1  UNL1        0.0572
     42 H           7.4231   -0.6919    0.0000 H       1  UNL1        0.0275
     43 H           8.2700   -0.4650    0.0000 H       1  UNL1        0.0275
     44 H           8.0431    0.3819    0.0000 H       1  UNL1        0.0275
     45 H           8.5622    2.1690    0.0000 H       1  UNL1        0.0260
     46 H           9.4091    1.9420    0.0000 H       1  UNL1        0.0260
     47 H           9.6360    2.7890    0.0000 H       1  UNL1        0.0260
     48 H           8.4091    4.7480    0.0000 H       1  UNL1        0.0594
     49 H           9.4651    4.4650    0.0000 H       1  UNL1        0.2106
     50 H           6.7891    4.7480    0.0000 H       1  UNL1        0.0533
     51 H           6.7891    3.6741    0.0000 H       1  UNL1        0.0533
@<TRIPOS>BOND
     1     1    11    1
     2     1    12    1
     3    12     2    1
     4     2    14    1
     5     8     3    1
     6     3    31    1
     7     9     4    1
     8     4    32    1
     9    10     5    1
    10     5    33    1
    11     6    13    1
    12     6    40    1
    13     7    17    1
    14     7    49    1
    15     8     9    1
    16     8    10    1
    17     8    24    1
    18     9    11    1
    19     9    25    1
    20    10    12    1
    21    10    26    1
    22    11    13    1
    23    11    27    1
    24    12    28    1
    25    13    29    1
    26    13    30    1
    27    14    15    1
    28    14    34    1
    29    14    35    1
    30    15    19    2
    31    15    20    1
    32    16    17    1
    33    16    18    1
    34    16    36    1
    35    16    37    1
    36    17    21    1
    37    17    22    1
    38    18    19    1
    39    18    38    1
    40    18    39    1
    41    19    41    1
    42    20    42    1
    43    20    43    1
    44    20    44    1
    45    21    45    1
    46    21    46    1
    47    21    47    1
    48    22    23    2
    49    22    48    1
    50    23    50    1
    51    23    51    1
