@<TRIPOS>MOLECULE
IMPHY008265
 99 99 0 0 0
SMALL
GASTEIGER

@<TRIPOS>ATOM
      1 O           6.0010   -6.5950    0.0000 O.3     1  UNL1       -0.4616
      2 O           4.2690   -6.5950    0.0000 O.2     1  UNL1       -0.2456
      3 O           2.5369  -11.5950    0.0000 O.3     1  UNL1       -0.5033
      4 O           4.2690  -12.5950    0.0000 O.3     1  UNL1       -0.5033
      5 C          11.1972    3.4050    0.0000 C.3     1  UNL1       -0.0531
      6 C          12.0632    3.9050    0.0000 C.3     1  UNL1       -0.0531
      7 C          11.1972    2.4050    0.0000 C.3     1  UNL1       -0.0531
      8 C          12.0632    4.9050    0.0000 C.3     1  UNL1       -0.0531
      9 C          10.3312    1.9050    0.0000 C.3     1  UNL1       -0.0531
     10 C          12.9292    5.4050    0.0000 C.3     1  UNL1       -0.0531
     11 C          10.3312    0.9050    0.0000 C.3     1  UNL1       -0.0531
     12 C          12.9292    6.4050    0.0000 C.3     1  UNL1       -0.0531
     13 C           9.4651    0.4050    0.0000 C.3     1  UNL1       -0.0531
     14 C          13.7953    6.9050    0.0000 C.3     1  UNL1       -0.0531
     15 C           9.4651   -0.5950    0.0000 C.3     1  UNL1       -0.0531
     16 C          13.7953    7.9050    0.0000 C.3     1  UNL1       -0.0531
     17 C           8.5991   -1.0950    0.0000 C.3     1  UNL1       -0.0531
     18 C          14.6613    8.4050    0.0000 C.3     1  UNL1       -0.0531
     19 C           8.5991   -2.0950    0.0000 C.3     1  UNL1       -0.0531
     20 C          14.6613    9.4050    0.0000 C.3     1  UNL1       -0.0531
     21 C           7.7331   -2.5950    0.0000 C.3     1  UNL1       -0.0531
     22 C          15.5273    9.9050    0.0000 C.3     1  UNL1       -0.0531
     23 C           7.7331   -3.5950    0.0000 C.3     1  UNL1       -0.0530
     24 C          15.5273   10.9050    0.0000 C.3     1  UNL1       -0.0531
     25 C           6.8671   -4.0950    0.0000 C.3     1  UNL1       -0.0500
     26 C          16.3933   11.4050    0.0000 C.3     1  UNL1       -0.0533
     27 C           6.8671   -5.0950    0.0000 C.3     1  UNL1       -0.0185
     28 C          16.3933   12.4050    0.0000 C.3     1  UNL1       -0.0559
     29 C           6.0010   -5.5950    0.0000 C.3     1  UNL1        0.0928
     30 C          17.2594   12.9050    0.0000 C.3     1  UNL1       -0.0653
     31 C           5.1350   -7.0950    0.0000 C.2     1  UNL1        0.3319
     32 C           5.1350   -8.0950    0.0000 C.2     1  UNL1        0.0231
     33 C           4.2690   -8.5950    0.0000 C.2     1  UNL1       -0.0477
     34 C           4.2690   -9.5950    0.0000 C.ar    1  UNL1       -0.0211
     35 C           3.4030  -10.0950    0.0000 C.ar    1  UNL1       -0.0094
     36 C           5.1350  -10.0950    0.0000 C.ar    1  UNL1       -0.0509
     37 C           3.4030  -11.0950    0.0000 C.ar    1  UNL1        0.1588
     38 C           5.1350  -11.0950    0.0000 C.ar    1  UNL1       -0.0160
     39 C           4.2690  -11.5950    0.0000 C.ar    1  UNL1        0.1582
     40 H          10.9851    3.9876    0.0000 H       1  UNL1        0.0265
     41 H          10.5866    3.2973    0.0000 H       1  UNL1        0.0265
     42 H          12.2753    3.3224    0.0000 H       1  UNL1        0.0265
     43 H          12.6738    4.0127    0.0000 H       1  UNL1        0.0265
     44 H          11.4092    1.8224    0.0000 H       1  UNL1        0.0265
     45 H          11.8078    2.5127    0.0000 H       1  UNL1        0.0265
     46 H          11.8512    5.4876    0.0000 H       1  UNL1        0.0265
     47 H          11.4526    4.7973    0.0000 H       1  UNL1        0.0265
     48 H          10.1191    2.4876    0.0000 H       1  UNL1        0.0265
     49 H           9.7206    1.7973    0.0000 H       1  UNL1        0.0265
     50 H          13.1413    4.8224    0.0000 H       1  UNL1        0.0265
     51 H          13.5398    5.5127    0.0000 H       1  UNL1        0.0265
     52 H          10.5432    0.3224    0.0000 H       1  UNL1        0.0265
     53 H          10.9417    1.0127    0.0000 H       1  UNL1        0.0265
     54 H          12.7172    6.9876    0.0000 H       1  UNL1        0.0265
     55 H          12.3187    6.2973    0.0000 H       1  UNL1        0.0265
     56 H           9.2531    0.9876    0.0000 H       1  UNL1        0.0265
     57 H           8.8546    0.2973    0.0000 H       1  UNL1        0.0265
     58 H          14.0073    6.3224    0.0000 H       1  UNL1        0.0265
     59 H          14.4058    7.0127    0.0000 H       1  UNL1        0.0265
     60 H           9.6772   -1.1776    0.0000 H       1  UNL1        0.0265
     61 H          10.0757   -0.4873    0.0000 H       1  UNL1        0.0265
     62 H          13.5832    8.4876    0.0000 H       1  UNL1        0.0265
     63 H          13.1847    7.7973    0.0000 H       1  UNL1        0.0265
     64 H           8.3871   -0.5124    0.0000 H       1  UNL1        0.0265
     65 H           7.9885   -1.2027    0.0000 H       1  UNL1        0.0265
     66 H          14.8733    7.8224    0.0000 H       1  UNL1        0.0265
     67 H          15.2719    8.5127    0.0000 H       1  UNL1        0.0265
     68 H           8.8112   -2.6776    0.0000 H       1  UNL1        0.0265
     69 H           9.2097   -1.9873    0.0000 H       1  UNL1        0.0265
     70 H          14.4492    9.9876    0.0000 H       1  UNL1        0.0265
     71 H          14.0507    9.2973    0.0000 H       1  UNL1        0.0265
     72 H           7.5210   -2.0124    0.0000 H       1  UNL1        0.0265
     73 H           7.1225   -2.7027    0.0000 H       1  UNL1        0.0265
     74 H          15.7394    9.3224    0.0000 H       1  UNL1        0.0265
     75 H          16.1379   10.0127    0.0000 H       1  UNL1        0.0265
     76 H           7.9451   -4.1776    0.0000 H       1  UNL1        0.0265
     77 H           8.3437   -3.4873    0.0000 H       1  UNL1        0.0265
     78 H          15.3153   11.4876    0.0000 H       1  UNL1        0.0265
     79 H          14.9167   10.7973    0.0000 H       1  UNL1        0.0265
     80 H           6.6550   -3.5124    0.0000 H       1  UNL1        0.0266
     81 H           6.2565   -4.2027    0.0000 H       1  UNL1        0.0266
     82 H          16.6054   10.8224    0.0000 H       1  UNL1        0.0265
     83 H          17.0039   11.5127    0.0000 H       1  UNL1        0.0265
     84 H           7.0791   -5.6776    0.0000 H       1  UNL1        0.0298
     85 H           7.4776   -4.9873    0.0000 H       1  UNL1        0.0298
     86 H          16.1813   12.9876    0.0000 H       1  UNL1        0.0263
     87 H          15.7828   12.2973    0.0000 H       1  UNL1        0.0263
     88 H           5.7890   -5.0124    0.0000 H       1  UNL1        0.0697
     89 H           5.3905   -5.7027    0.0000 H       1  UNL1        0.0697
     90 H          17.5694   12.3681    0.0000 H       1  UNL1        0.0230
     91 H          17.7963   13.2150    0.0000 H       1  UNL1        0.0230
     92 H          16.9494   13.4419    0.0000 H       1  UNL1        0.0230
     93 H           5.6720   -8.4050    0.0000 H       1  UNL1        0.0689
     94 H           3.7320   -8.2850    0.0000 H       1  UNL1        0.0626
     95 H           2.8660   -9.7850    0.0000 H       1  UNL1        0.0661
     96 H           5.6720   -9.7850    0.0000 H       1  UNL1        0.0625
     97 H           5.6720  -11.4050    0.0000 H       1  UNL1        0.0655
     98 H           2.0000  -11.2850    0.0000 H       1  UNL1        0.2923
     99 H           4.8059  -12.9050    0.0000 H       1  UNL1        0.2923
@<TRIPOS>BOND
     1     1    29    1
     2     1    31    1
     3     2    31    2
     4     3    37    1
     5     3    98    1
     6     4    39    1
     7     4    99    1
     8     5     6    1
     9     5     7    1
    10     5    40    1
    11     5    41    1
    12     6     8    1
    13     6    42    1
    14     6    43    1
    15     7     9    1
    16     7    44    1
    17     7    45    1
    18     8    10    1
    19     8    46    1
    20     8    47    1
    21     9    11    1
    22     9    48    1
    23     9    49    1
    24    10    12    1
    25    10    50    1
    26    10    51    1
    27    11    13    1
    28    11    52    1
    29    11    53    1
    30    12    14    1
    31    12    54    1
    32    12    55    1
    33    13    15    1
    34    13    56    1
    35    13    57    1
    36    14    16    1
    37    14    58    1
    38    14    59    1
    39    15    17    1
    40    15    60    1
    41    15    61    1
    42    16    18    1
    43    16    62    1
    44    16    63    1
    45    17    19    1
    46    17    64    1
    47    17    65    1
    48    18    20    1
    49    18    66    1
    50    18    67    1
    51    19    21    1
    52    19    68    1
    53    19    69    1
    54    20    22    1
    55    20    70    1
    56    20    71    1
    57    21    23    1
    58    21    72    1
    59    21    73    1
    60    22    24    1
    61    22    74    1
    62    22    75    1
    63    23    25    1
    64    23    76    1
    65    23    77    1
    66    24    26    1
    67    24    78    1
    68    24    79    1
    69    25    27    1
    70    25    80    1
    71    25    81    1
    72    26    28    1
    73    26    82    1
    74    26    83    1
    75    27    29    1
    76    27    84    1
    77    27    85    1
    78    28    30    1
    79    28    86    1
    80    28    87    1
    81    29    88    1
    82    29    89    1
    83    30    90    1
    84    30    91    1
    85    30    92    1
    86    31    32    1
    87    32    33    2
    88    32    93    1
    89    33    34    1
    90    33    94    1
    91    34    35   ar
    92    34    36   ar
    93    35    37   ar
    94    35    95    1
    95    36    38   ar
    96    36    96    1
    97    37    39   ar
    98    38    39   ar
    99    38    97    1
