@<TRIPOS>MOLECULE
IMPHY005383
 36 38 0 0 0
SMALL
GASTEIGER

@<TRIPOS>ATOM
      1 O           2.0000   -1.4400    0.0000 O.3     1  UNL1       -0.5068
      2 N           7.1962    0.5600    0.0000 N.3     1  UNL1       -0.2949
      3 C           7.1962    1.5600    0.0000 C.3     1  UNL1        0.0145
      4 C           8.1424    1.8647    0.0000 C.3     1  UNL1       -0.0359
      5 C           8.1424    0.2553    0.0000 C.3     1  UNL1       -0.0004
      6 C           8.7260    1.0600    0.0000 C.3     1  UNL1       -0.0388
      7 C           6.3301    2.0600    0.0000 C.3     1  UNL1       -0.0157
      8 C           6.3301    0.0600    0.0000 C.3     1  UNL1        0.0248
      9 C           5.4641    1.5600    0.0000 C.2     1  UNL1       -0.0662
     10 C           5.4641    0.5600    0.0000 C.2     1  UNL1       -0.0272
     11 C           4.5981    2.0600    0.0000 C.3     1  UNL1       -0.0431
     12 C           4.5981    0.0600    0.0000 C.ar    1  UNL1       -0.0204
     13 C           3.7320    0.5600    0.0000 C.ar    1  UNL1       -0.0508
     14 C           4.5981   -0.9400    0.0000 C.ar    1  UNL1       -0.0508
     15 C           2.8660    0.0600    0.0000 C.ar    1  UNL1       -0.0196
     16 C           3.7320   -1.4400    0.0000 C.ar    1  UNL1       -0.0196
     17 C           2.8660   -0.9400    0.0000 C.ar    1  UNL1        0.1169
     18 H           7.2861    2.4052    0.0000 H       1  UNL1        0.0466
     19 H           8.6798    2.1740    0.0000 H       1  UNL1        0.0281
     20 H           7.8913    2.4316    0.0000 H       1  UNL1        0.0281
     21 H           7.8913   -0.3116    0.0000 H       1  UNL1        0.0427
     22 H           8.6798   -0.0540    0.0000 H       1  UNL1        0.0427
     23 H           9.1868    0.6453    0.0000 H       1  UNL1        0.0278
     24 H           9.1868    1.4747    0.0000 H       1  UNL1        0.0278
     25 H           6.7287    2.5349    0.0000 H       1  UNL1        0.0325
     26 H           5.9316    2.5349    0.0000 H       1  UNL1        0.0325
     27 H           5.9316   -0.4149    0.0000 H       1  UNL1        0.0476
     28 H           6.7287   -0.4149    0.0000 H       1  UNL1        0.0476
     29 H           4.9081    2.5969    0.0000 H       1  UNL1        0.0275
     30 H           4.0611    2.3700    0.0000 H       1  UNL1        0.0275
     31 H           4.2881    1.5231    0.0000 H       1  UNL1        0.0275
     32 H           3.7320    1.1800    0.0000 H       1  UNL1        0.0625
     33 H           5.1350   -1.2500    0.0000 H       1  UNL1        0.0625
     34 H           2.3291    0.3700    0.0000 H       1  UNL1        0.0654
     35 H           3.7320   -2.0600    0.0000 H       1  UNL1        0.0654
     36 H           2.0000   -2.0600    0.0000 H       1  UNL1        0.2921
@<TRIPOS>BOND
     1     1    17    1
     2     1    36    1
     3     2     3    1
     4     2     5    1
     5     2     8    1
     6     3     4    1
     7     3     7    1
     8     3    18    1
     9     4     6    1
    10     4    19    1
    11     4    20    1
    12     5     6    1
    13     5    21    1
    14     5    22    1
    15     6    23    1
    16     6    24    1
    17     7     9    1
    18     7    25    1
    19     7    26    1
    20     8    10    1
    21     8    27    1
    22     8    28    1
    23     9    10    2
    24     9    11    1
    25    10    12    1
    26    11    29    1
    27    11    30    1
    28    11    31    1
    29    12    13   ar
    30    12    14   ar
    31    13    15   ar
    32    13    32    1
    33    14    16   ar
    34    14    33    1
    35    15    17   ar
    36    15    34    1
    37    16    17   ar
    38    16    35    1
