@<TRIPOS>MOLECULE
IMPHY013000
 58 60 0 0 0
SMALL
GASTEIGER

@<TRIPOS>ATOM
      1 O           8.1986   -0.5950    0.0000 O.3     1  UNL1       -0.3405
      2 O           4.6870    0.4983    0.0000 O.3     1  UNL1       -0.3405
      3 O           6.4666    0.4050    0.0000 O.3     1  UNL1       -0.3460
      4 O           6.4666   -2.5950    0.0000 O.3     1  UNL1       -0.3865
      5 O           8.1986   -3.5950    0.0000 O.3     1  UNL1       -0.3864
      6 O           9.9307   -0.5950    0.0000 O.3     1  UNL1       -0.3446
      7 O           9.9307   -2.5950    0.0000 O.3     1  UNL1       -0.3841
      8 O           6.2392    2.5686    0.0000 O.3     1  UNL1       -0.3841
      9 O           4.1111    3.0210    0.0000 O.3     1  UNL1       -0.3864
     10 O           2.6166    0.2233    0.0000 O.3     1  UNL1       -0.3924
     11 C           7.3326   -1.0950    0.0000 C.3     1  UNL1        0.1134
     12 C           7.3326   -2.0950    0.0000 C.3     1  UNL1        0.1119
     13 C           8.1986   -2.5950    0.0000 C.3     1  UNL1        0.1141
     14 C           9.0646   -2.0950    0.0000 C.3     1  UNL1        0.1341
     15 C           5.4960    1.8995    0.0000 C.3     1  UNL1        0.1341
     16 C           5.6005    0.9050    0.0000 C.3     1  UNL1        0.1880
     17 C           4.5179    2.1074    0.0000 C.3     1  UNL1        0.1141
     18 C           4.0179    1.2414    0.0000 C.3     1  UNL1        0.1131
     19 C           9.0646   -1.0950    0.0000 C.3     1  UNL1        0.1882
     20 C           6.4666   -0.5950    0.0000 C.3     1  UNL1        0.0796
     21 C           3.0233    1.1369    0.0000 C.3     1  UNL1        0.0730
     22 C           9.9307    0.4050    0.0000 C.3     1  UNL1        0.0693
     23 C          10.7967    0.9050    0.0000 C.2     1  UNL1       -0.0580
     24 C          10.7967    1.9050    0.0000 C.2     1  UNL1       -0.0564
     25 C          11.6627    2.4050    0.0000 C.ar    1  UNL1       -0.0253
     26 C          12.5287    1.9050    0.0000 C.ar    1  UNL1       -0.0546
     27 C          11.6627    3.4050    0.0000 C.ar    1  UNL1       -0.0546
     28 C          13.3948    2.4050    0.0000 C.ar    1  UNL1       -0.0612
     29 C          12.5287    3.9050    0.0000 C.ar    1  UNL1       -0.0612
     30 C          13.3948    3.4050    0.0000 C.ar    1  UNL1       -0.0617
     31 H           7.3326   -0.4750    0.0000 H       1  UNL1        0.0647
     32 H           6.7956   -1.7850    0.0000 H       1  UNL1        0.0647
     33 H           7.6617   -2.9050    0.0000 H       1  UNL1        0.0648
     34 H           9.0646   -2.7150    0.0000 H       1  UNL1        0.0671
     35 H           6.0748    1.6773    0.0000 H       1  UNL1        0.0671
     36 H           5.5681    0.2858    0.0000 H       1  UNL1        0.0937
     37 H           4.9080    2.5893    0.0000 H       1  UNL1        0.0648
     38 H           3.7957    0.6626    0.0000 H       1  UNL1        0.0647
     39 H           9.6016   -1.4050    0.0000 H       1  UNL1        0.0938
     40 H           5.8560   -0.4873    0.0000 H       1  UNL1        0.0587
     41 H           6.2545   -1.1776    0.0000 H       1  UNL1        0.0587
     42 H           3.0666    1.7554    0.0000 H       1  UNL1        0.0584
     43 H           2.4218    1.2869    0.0000 H       1  UNL1        0.0584
     44 H           5.9296   -2.2850    0.0000 H       1  UNL1        0.2100
     45 H           7.6617   -3.9050    0.0000 H       1  UNL1        0.2100
     46 H          10.4676   -2.2850    0.0000 H       1  UNL1        0.2101
     47 H           6.1102    3.1751    0.0000 H       1  UNL1        0.2101
     48 H           3.4945    3.0858    0.0000 H       1  UNL1        0.2100
     49 H           9.7186    0.9876    0.0000 H       1  UNL1        0.0605
     50 H           9.3201    0.2973    0.0000 H       1  UNL1        0.0605
     51 H           2.0000    0.1585    0.0000 H       1  UNL1        0.2095
     52 H          11.3336    0.5950    0.0000 H       1  UNL1        0.0595
     53 H          10.2598    2.2150    0.0000 H       1  UNL1        0.0621
     54 H          12.5287    1.2850    0.0000 H       1  UNL1        0.0623
     55 H          11.1258    3.7150    0.0000 H       1  UNL1        0.0623
     56 H          13.9317    2.0950    0.0000 H       1  UNL1        0.0618
     57 H          12.5287    4.5250    0.0000 H       1  UNL1        0.0618
     58 H          13.9317    3.7150    0.0000 H       1  UNL1        0.0618
@<TRIPOS>BOND
     1     1    11    1
     2     1    19    1
     3     2    16    1
     4     2    18    1
     5    16     3    1
     6     3    20    1
     7    12     4    1
     8     4    44    1
     9    13     5    1
    10     5    45    1
    11    19     6    1
    12     6    22    1
    13    14     7    1
    14     7    46    1
    15    15     8    1
    16     8    47    1
    17    17     9    1
    18     9    48    1
    19    10    21    1
    20    10    51    1
    21    11    12    1
    22    11    20    1
    23    11    31    1
    24    12    13    1
    25    12    32    1
    26    13    14    1
    27    13    33    1
    28    14    19    1
    29    14    34    1
    30    15    16    1
    31    15    17    1
    32    15    35    1
    33    16    36    1
    34    17    18    1
    35    17    37    1
    36    18    21    1
    37    18    38    1
    38    19    39    1
    39    20    40    1
    40    20    41    1
    41    21    42    1
    42    21    43    1
    43    22    23    1
    44    22    49    1
    45    22    50    1
    46    23    24    2
    47    23    52    1
    48    24    25    1
    49    24    53    1
    50    25    26   ar
    51    25    27   ar
    52    26    28   ar
    53    26    54    1
    54    27    29   ar
    55    27    55    1
    56    28    30   ar
    57    28    56    1
    58    29    30   ar
    59    29    57    1
    60    30    58    1
