@<TRIPOS>MOLECULE
IMPHY004707
 54 57 0 0 0
SMALL
GASTEIGER

@<TRIPOS>ATOM
      1 O           5.1350   -0.3845    0.0000 O.3     1  UNL1       -0.3313
      2 O           6.8671   -0.3845    0.0000 O.3     1  UNL1       -0.4599
      3 O           5.1350   -3.3845    0.0000 O.3     1  UNL1       -0.3864
      4 O           3.4030   -2.3845    0.0000 O.3     1  UNL1       -0.3865
      5 O           6.8671   -2.3845    0.0000 O.3     1  UNL1       -0.3829
      6 O           2.5369   -0.8845    0.0000 O.3     1  UNL1       -0.3924
      7 O           8.6504    2.6297    0.0000 O.2     1  UNL1       -0.4618
      8 O           5.1208    2.6946    0.0000 O.3     1  UNL1       -0.4949
      9 O           8.6158   -0.3701    0.0000 O.2     1  UNL1       -0.2863
     10 O          12.9398   -0.9202    0.0000 O.3     1  UNL1       -0.5068
     11 C           5.1350   -2.3845    0.0000 C.3     1  UNL1        0.1152
     12 C           4.2690   -1.8845    0.0000 C.3     1  UNL1        0.1120
     13 C           6.0010   -1.8845    0.0000 C.3     1  UNL1        0.1454
     14 C           4.2690   -0.8845    0.0000 C.3     1  UNL1        0.1140
     15 C           6.0010   -0.8845    0.0000 C.3     1  UNL1        0.2308
     16 C           3.4030   -0.3845    0.0000 C.3     1  UNL1        0.0731
     17 C           6.8671    0.6155    0.0000 C.ar    1  UNL1        0.1418
     18 C           7.7671    1.1398    0.0000 C.ar    1  UNL1        0.1064
     19 C           5.9670    1.1398    0.0000 C.ar    1  UNL1        0.0228
     20 C           7.7787    2.1397    0.0000 C.ar    1  UNL1        0.1454
     21 C           8.6273    0.6298    0.0000 C.ar    1  UNL1        0.2037
     22 C           5.9790    2.1813    0.0000 C.ar    1  UNL1        0.1271
     23 C           6.8910    2.6847    0.0000 C.ar    1  UNL1        0.0233
     24 C           9.4991    1.1198    0.0000 C.ar    1  UNL1        0.0644
     25 C           9.5106    2.1197    0.0000 C.ar    1  UNL1        0.1038
     26 C          10.3592    0.6098    0.0000 C.ar    1  UNL1       -0.0110
     27 C          10.3477   -0.3902    0.0000 C.ar    1  UNL1       -0.0504
     28 C          11.2310    1.0997    0.0000 C.ar    1  UNL1       -0.0504
     29 C          11.2079   -0.9001    0.0000 C.ar    1  UNL1       -0.0196
     30 C          12.0912    0.5897    0.0000 C.ar    1  UNL1       -0.0196
     31 C           5.1363    3.6945    0.0000 C.3     1  UNL1        0.0788
     32 C          12.0796   -0.4102    0.0000 C.ar    1  UNL1        0.1169
     33 H           5.6720   -2.6945    0.0000 H       1  UNL1        0.0648
     34 H           4.2690   -2.5045    0.0000 H       1  UNL1        0.0647
     35 H           6.5380   -1.5745    0.0000 H       1  UNL1        0.0683
     36 H           4.2690   -0.2645    0.0000 H       1  UNL1        0.0647
     37 H           6.0010   -0.2645    0.0000 H       1  UNL1        0.1084
     38 H           3.8015    0.0904    0.0000 H       1  UNL1        0.0584
     39 H           3.0044    0.0904    0.0000 H       1  UNL1        0.0584
     40 H           4.5981   -3.6945    0.0000 H       1  UNL1        0.2100
     41 H           3.4030   -3.0045    0.0000 H       1  UNL1        0.2100
     42 H           6.8671   -3.0045    0.0000 H       1  UNL1        0.2102
     43 H           2.0000   -0.5745    0.0000 H       1  UNL1        0.2095
     44 H           5.4277    0.8339    0.0000 H       1  UNL1        0.0691
     45 H           6.9053    3.3045    0.0000 H       1  UNL1        0.0691
     46 H          10.0511    2.4234    0.0000 H       1  UNL1        0.1037
     47 H           9.8072   -0.6939    0.0000 H       1  UNL1        0.0625
     48 H          11.2382    1.7197    0.0000 H       1  UNL1        0.0625
     49 H          11.2007   -1.5201    0.0000 H       1  UNL1        0.0654
     50 H          12.6317    0.8935    0.0000 H       1  UNL1        0.0654
     51 H           5.7562    3.6850    0.0000 H       1  UNL1        0.0660
     52 H           5.1458    4.3144    0.0000 H       1  UNL1        0.0660
     53 H           4.5163    3.7041    0.0000 H       1  UNL1        0.0660
     54 H          13.4803   -0.6164    0.0000 H       1  UNL1        0.2921
@<TRIPOS>BOND
     1     1    14    1
     2     1    15    1
     3    15     2    1
     4     2    17    1
     5    11     3    1
     6     3    40    1
     7    12     4    1
     8     4    41    1
     9     5    13    1
    10     5    42    1
    11     6    16    1
    12     6    43    1
    13     7    20   ar
    14     7    25   ar
    15     8    22    1
    16     8    31    1
    17     9    21    2
    18    10    32    1
    19    10    54    1
    20    11    12    1
    21    11    13    1
    22    11    33    1
    23    12    14    1
    24    12    34    1
    25    13    15    1
    26    13    35    1
    27    14    16    1
    28    14    36    1
    29    15    37    1
    30    16    38    1
    31    16    39    1
    32    17    18   ar
    33    17    19   ar
    34    18    20   ar
    35    18    21   ar
    36    19    22   ar
    37    19    44    1
    38    20    23   ar
    39    21    24   ar
    40    22    23   ar
    41    23    45    1
    42    24    25   ar
    43    24    26    1
    44    25    46    1
    45    26    27   ar
    46    26    28   ar
    47    27    29   ar
    48    27    47    1
    49    28    30   ar
    50    28    48    1
    51    29    32   ar
    52    29    49    1
    53    30    32   ar
    54    30    50    1
    55    31    51    1
    56    31    52    1
    57    31    53    1
