@<TRIPOS>MOLECULE
IMPHY000702
 36 39 0 0 0
SMALL
GASTEIGER

@<TRIPOS>ATOM
      1 O           5.0316   -2.4597    0.0000 O.3     1  UNL1       -0.3561
      2 O           3.3027   -0.8010    0.0000 O.3     1  UNL1       -0.4583
      3 O           3.3407   -2.5770    0.0000 O.2     1  UNL1       -0.2475
      4 C           4.8888   -0.5146    0.0000 C.3     1  UNL1        0.0388
      5 C           4.7528   -1.4994    0.0000 C.3     1  UNL1        0.1946
      6 C           3.9878   -0.0807    0.0000 C.3     1  UNL1        0.1162
      7 C           3.7653    0.8942    0.0000 C.3     1  UNL1        0.0238
      8 C           4.3888    1.6760    0.0000 C.3     1  UNL1       -0.0100
      9 C           5.7898   -0.0807    0.0000 C.3     1  UNL1       -0.0399
     10 C           5.7239   -1.7381    0.0000 C.3     1  UNL1        0.0891
     11 C           3.7745   -1.6760    0.0000 C.2     1  UNL1        0.3424
     12 C           3.8390    2.5042    0.0000 C.3     1  UNL1       -0.0422
     13 C           2.8355    1.2459    0.0000 C.2     1  UNL1       -0.0694
     14 C           6.0123    0.8942    0.0000 C.3     1  UNL1       -0.0312
     15 C           5.3888    1.6760    0.0000 C.2     1  UNL1       -0.0728
     16 C           2.8810    2.2389    0.0000 C.3     1  UNL1       -0.0310
     17 C           2.0000    0.6964    0.0000 C.2     1  UNL1       -0.0990
     18 C           5.8227    2.5770    0.0000 C.2     1  UNL1       -0.0992
     19 H           5.5758   -1.0151    0.0000 H       1  UNL1        0.0371
     20 H           3.1682    0.1443    0.0000 H       1  UNL1        0.0744
     21 H           3.1245    0.3358    0.0000 H       1  UNL1        0.0387
     22 H           4.7906    2.4250    0.0000 H       1  UNL1        0.0353
     23 H           5.9277   -0.6852    0.0000 H       1  UNL1        0.0273
     24 H           6.4098   -0.0807    0.0000 H       1  UNL1        0.0273
     25 H           6.2390   -2.0832    0.0000 H       1  UNL1        0.0595
     26 H           5.9742   -1.1709    0.0000 H       1  UNL1        0.0595
     27 H           4.3887    2.7909    0.0000 H       1  UNL1        0.0274
     28 H           3.6117    3.0810    0.0000 H       1  UNL1        0.0274
     29 H           6.5709    0.6252    0.0000 H       1  UNL1        0.0310
     30 H           6.3989    1.3789    0.0000 H       1  UNL1        0.0310
     31 H           2.7792    2.8505    0.0000 H       1  UNL1        0.0310
     32 H           2.2621    2.2020    0.0000 H       1  UNL1        0.0310
     33 H           1.4460    0.9747    0.0000 H       1  UNL1        0.0535
     34 H           2.0360    0.0775    0.0000 H       1  UNL1        0.0535
     35 H           6.4410    2.6233    0.0000 H       1  UNL1        0.0534
     36 H           5.4734    3.0892    0.0000 H       1  UNL1        0.0534
@<TRIPOS>BOND
     1     5     1    1
     2     1    10    1
     3     2     6    1
     4     2    11    1
     5     3    11    2
     6     4     5    1
     7     4     6    1
     8     4     9    1
     9     4    19    1
    10     5    10    1
    11     5    11    1
    12     6     7    1
    13     6    20    1
    14     7     8    1
    15     7    13    1
    16     7    21    1
    17     8    12    1
    18     8    15    1
    19     8    22    1
    20     9    14    1
    21     9    23    1
    22     9    24    1
    23    10    25    1
    24    10    26    1
    25    12    16    1
    26    12    27    1
    27    12    28    1
    28    13    16    1
    29    13    17    2
    30    14    15    1
    31    14    29    1
    32    14    30    1
    33    15    18    2
    34    16    31    1
    35    16    32    1
    36    17    33    1
    37    17    34    1
    38    18    35    1
    39    18    36    1
