@<TRIPOS>MOLECULE
IMPHY009851
 40 42 0 0 0
SMALL
GASTEIGER

@<TRIPOS>ATOM
      1 O           4.3021    1.0768    0.0000 O.3     1  UNL1       -0.3658
      2 C           3.8021   -0.4620    0.0000 C.3     1  UNL1        0.0088
      3 C           2.9931    0.1258    0.0000 C.3     1  UNL1       -0.0038
      4 C           3.0616   -1.1252    0.0000 C.3     1  UNL1       -0.0352
      5 C           4.6111    0.1258    0.0000 C.3     1  UNL1        0.0839
      6 C           3.3021    1.0768    0.0000 C.3     1  UNL1        0.0681
      7 C           2.0047    0.0193    0.0000 C.3     1  UNL1       -0.0467
      8 C           2.0000   -0.7903    0.0000 C.3     1  UNL1       -0.0495
      9 C           3.8950   -1.4995    0.0000 C.3     1  UNL1       -0.0404
     10 C           4.8433   -1.9305    0.0000 C.3     1  UNL1       -0.0313
     11 C           5.5691   -0.2832    0.0000 C.2     1  UNL1       -0.0561
     12 C           3.3690   -2.0768    0.0000 C.3     1  UNL1       -0.0618
     13 C           3.3021    2.0768    0.0000 C.3     1  UNL1       -0.0358
     14 C           2.3510    1.3859    0.0000 C.3     1  UNL1       -0.0358
     15 C           5.6860   -1.3182    0.0000 C.2     1  UNL1       -0.0741
     16 C           6.6011   -1.7214    0.0000 C.3     1  UNL1       -0.0437
     17 H           2.6023    0.6071    0.0000 H       1  UNL1        0.0335
     18 H           2.6247   -1.5652    0.0000 H       1  UNL1        0.0304
     19 H           5.0686    0.5442    0.0000 H       1  UNL1        0.0646
     20 H           1.9616    0.6378    0.0000 H       1  UNL1        0.0269
     21 H           1.3850   -0.0005    0.0000 H       1  UNL1        0.0269
     22 H           1.3835   -0.7249    0.0000 H       1  UNL1        0.0268
     23 H           1.8734   -1.3973    0.0000 H       1  UNL1        0.0268
     24 H           3.2771   -1.4483    0.0000 H       1  UNL1        0.0275
     25 H           3.7388   -2.0995    0.0000 H       1  UNL1        0.0275
     26 H           4.4939   -2.4427    0.0000 H       1  UNL1        0.0310
     27 H           5.2881   -2.3623    0.0000 H       1  UNL1        0.0310
     28 H           6.0664    0.0870    0.0000 H       1  UNL1        0.0597
     29 H           2.7790   -2.2674    0.0000 H       1  UNL1        0.0233
     30 H           3.5596   -2.6668    0.0000 H       1  UNL1        0.0233
     31 H           3.9590   -1.8863    0.0000 H       1  UNL1        0.0233
     32 H           2.5426    1.9755    0.0000 H       1  UNL1        0.0257
     33 H           1.7614    1.5774    0.0000 H       1  UNL1        0.0257
     34 H           2.1594    0.7962    0.0000 H       1  UNL1        0.0257
     35 H           3.9221    2.0768    0.0000 H       1  UNL1        0.0257
     36 H           3.3021    2.6968    0.0000 H       1  UNL1        0.0257
     37 H           2.6821    2.0768    0.0000 H       1  UNL1        0.0257
     38 H           6.3511   -2.2888    0.0000 H       1  UNL1        0.0274
     39 H           7.1684   -1.9714    0.0000 H       1  UNL1        0.0274
     40 H           6.8510   -1.1541    0.0000 H       1  UNL1        0.0274
@<TRIPOS>BOND
     1     1     5    1
     2     1     6    1
     3     2     3    1
     4     2     4    1
     5     2     5    1
     6     2     9    1
     7     3     6    1
     8     3     7    1
     9     3    17    1
    10     4     8    1
    11     4    12    1
    12     4    18    1
    13     5    11    1
    14     5    19    1
    15     6    13    1
    16     6    14    1
    17     7     8    1
    18     7    20    1
    19     7    21    1
    20     8    22    1
    21     8    23    1
    22     9    10    1
    23     9    24    1
    24     9    25    1
    25    10    15    1
    26    10    26    1
    27    10    27    1
    28    11    15    2
    29    11    28    1
    30    12    29    1
    31    12    30    1
    32    12    31    1
    33    13    35    1
    34    13    36    1
    35    13    37    1
    36    14    32    1
    37    14    33    1
    38    14    34    1
    39    15    16    1
    40    16    38    1
    41    16    39    1
    42    16    40    1
