@<TRIPOS>MOLECULE
IMPHY009847
 25 25 0 0 0
SMALL
GASTEIGER

@<TRIPOS>ATOM
      1 O           3.7320    1.8450    0.0000 O.3     1  UNL1       -0.3845
      2 C           3.7320    0.8450    0.0000 C.3     1  UNL1        0.0854
      3 C           3.7320   -0.1550    0.0000 C.ar    1  UNL1       -0.0164
      4 C           4.7320    0.8450    0.0000 C.3     1  UNL1       -0.0321
      5 C           2.7320    0.8450    0.0000 C.3     1  UNL1       -0.0321
      6 C           2.8660   -0.6550    0.0000 C.ar    1  UNL1       -0.0530
      7 C           4.5981   -0.6550    0.0000 C.ar    1  UNL1       -0.0559
      8 C           2.8660   -1.6550    0.0000 C.ar    1  UNL1       -0.0501
      9 C           4.5981   -1.6550    0.0000 C.ar    1  UNL1       -0.0612
     10 C           3.7320   -2.1550    0.0000 C.ar    1  UNL1       -0.0588
     11 C           2.0000   -2.1550    0.0000 C.3     1  UNL1       -0.0397
     12 H           4.7320    0.2250    0.0000 H       1  UNL1        0.0260
     13 H           5.3520    0.8450    0.0000 H       1  UNL1        0.0260
     14 H           4.7320    1.4650    0.0000 H       1  UNL1        0.0260
     15 H           2.7320    1.4650    0.0000 H       1  UNL1        0.0260
     16 H           2.1120    0.8450    0.0000 H       1  UNL1        0.0260
     17 H           2.7320    0.2250    0.0000 H       1  UNL1        0.0260
     18 H           2.3291   -0.3450    0.0000 H       1  UNL1        0.0624
     19 H           5.1350   -0.3450    0.0000 H       1  UNL1        0.0621
     20 H           5.1350   -1.9650    0.0000 H       1  UNL1        0.0618
     21 H           3.7320   -2.7750    0.0000 H       1  UNL1        0.0620
     22 H           4.2690    2.1550    0.0000 H       1  UNL1        0.2106
     23 H           1.6900   -1.6181    0.0000 H       1  UNL1        0.0278
     24 H           1.4631   -2.4650    0.0000 H       1  UNL1        0.0278
     25 H           2.3100   -2.6919    0.0000 H       1  UNL1        0.0278
@<TRIPOS>BOND
     1     1     2    1
     2     1    22    1
     3     2     3    1
     4     2     4    1
     5     2     5    1
     6     3     6   ar
     7     3     7   ar
     8     4    12    1
     9     4    13    1
    10     4    14    1
    11     5    15    1
    12     5    16    1
    13     5    17    1
    14     6     8   ar
    15     6    18    1
    16     7     9   ar
    17     7    19    1
    18     8    10   ar
    19     8    11    1
    20     9    10   ar
    21     9    20    1
    22    10    21    1
    23    11    23    1
    24    11    24    1
    25    11    25    1
