@<TRIPOS>MOLECULE
IMPHY001179
 47 51 0 0 0
SMALL
GASTEIGER

@<TRIPOS>ATOM
      1 O           6.8461    1.8995    0.0000 O.3     1  UNL1       -0.3939
      2 O           3.9451    1.6809    0.0000 O.3     1  UNL1       -0.4801
      3 O           5.5222    2.3968    0.0000 O.2     1  UNL1       -0.2502
      4 N           5.1025   -1.3516    0.0000 N.3     1  UNL1       -0.2903
      5 N           6.4864    1.0435    0.0000 N.2     1  UNL1       -0.2537
      6 C           6.9864   -0.4954    0.0000 C.3     1  UNL1        0.0569
      7 C           5.3536    0.6730    0.0000 C.3     1  UNL1        0.1117
      8 C           3.5254   -0.1569    0.0000 C.3     1  UNL1        0.0021
      9 C           5.2194   -0.3165    0.0000 C.3     1  UNL1        0.0506
     10 C           6.1774    0.0924    0.0000 C.2     1  UNL1        0.0483
     11 C           4.4178    0.2454    0.0000 C.3     1  UNL1       -0.0243
     12 C           6.8935   -1.5329    0.0000 C.3     1  UNL1       -0.0241
     13 C           5.9452   -1.9639    0.0000 C.3     1  UNL1        0.0010
     14 C           7.7954    0.0924    0.0000 C.ar    1  UNL1       -0.0091
     15 C           3.4156   -1.1296    0.0000 C.2     1  UNL1       -0.0554
     16 C           4.1959   -1.7207    0.0000 C.3     1  UNL1        0.0209
     17 C           5.9356    1.4862    0.0000 C.3     1  UNL1        0.0617
     18 C           4.9403    1.5836    0.0000 C.2     1  UNL1        0.3150
     19 C           7.4864    1.0435    0.0000 C.ar    1  UNL1        0.0680
     20 C           8.8108   -0.1398    0.0000 C.ar    1  UNL1       -0.0556
     21 C           2.4965   -1.5236    0.0000 C.2     1  UNL1       -0.0864
     22 C           8.1714    1.8282    0.0000 C.ar    1  UNL1       -0.0360
     23 C           9.5138    0.6288    0.0000 C.ar    1  UNL1       -0.0613
     24 C           2.3782   -2.5166    0.0000 C.3     1  UNL1       -0.0465
     25 C           9.1919    1.6195    0.0000 C.ar    1  UNL1       -0.0597
     26 H           2.8385    0.3438    0.0000 H       1  UNL1        0.0358
     27 H           4.8796    0.4626    0.0000 H       1  UNL1        0.0525
     28 H           4.8583    0.6817    0.0000 H       1  UNL1        0.0290
     29 H           4.0667    0.7564    0.0000 H       1  UNL1        0.0290
     30 H           7.0497   -2.1329    0.0000 H       1  UNL1        0.0290
     31 H           7.5114   -1.4817    0.0000 H       1  UNL1        0.0290
     32 H           5.5003   -2.3957    0.0000 H       1  UNL1        0.0427
     33 H           6.2946   -2.4761    0.0000 H       1  UNL1        0.0427
     34 H           3.7396   -2.1405    0.0000 H       1  UNL1        0.0473
     35 H           4.5279   -2.2442    0.0000 H       1  UNL1        0.0473
     36 H           5.8878    2.1044    0.0000 H       1  UNL1        0.0569
     37 H           6.3292    1.0072    0.0000 H       1  UNL1        0.0569
     38 H           8.9956   -0.7317    0.0000 H       1  UNL1        0.0621
     39 H           2.0000   -1.1523    0.0000 H       1  UNL1        0.0569
     40 H           7.9730    2.4156    0.0000 H       1  UNL1        0.0639
     41 H           6.9065    2.5166    0.0000 H       1  UNL1        0.2094
     42 H           3.6888    2.2455    0.0000 H       1  UNL1        0.2951
     43 H          10.1197    0.4976    0.0000 H       1  UNL1        0.0618
     44 H           1.7626   -2.4432    0.0000 H       1  UNL1        0.0272
     45 H           2.3048   -3.1322    0.0000 H       1  UNL1        0.0272
     46 H           2.9938   -2.5899    0.0000 H       1  UNL1        0.0272
     47 H           9.6050    2.0818    0.0000 H       1  UNL1        0.0618
@<TRIPOS>BOND
     1     1    17    1
     2     1    41    1
     3     2    18    1
     4     2    42    1
     5     3    18    2
     6     4     9    1
     7     4    13    1
     8     4    16    1
     9     5    10    2
    10     5    19    1
    11     6     7    1
    12     6    10    1
    13     6    12    1
    14     6    14    1
    15     7     8    1
    16     7    17    1
    17     7    18    1
    18     8    11    1
    19     8    15    1
    20     8    26    1
    21     9    10    1
    22     9    11    1
    23     9    27    1
    24    11    28    1
    25    11    29    1
    26    12    13    1
    27    12    30    1
    28    12    31    1
    29    13    32    1
    30    13    33    1
    31    14    19   ar
    32    14    20   ar
    33    15    16    1
    34    15    21    2
    35    16    34    1
    36    16    35    1
    37    17    36    1
    38    17    37    1
    39    19    22   ar
    40    20    23   ar
    41    20    38    1
    42    21    24    1
    43    21    39    1
    44    22    25   ar
    45    22    40    1
    46    23    25   ar
    47    23    43    1
    48    24    44    1
    49    24    45    1
    50    24    46    1
    51    25    47    1
