@<TRIPOS>MOLECULE
IMPHY009813
 25 27 0 0 0
SMALL
GASTEIGER

@<TRIPOS>ATOM
      1 O           4.6660    1.8246    0.0000 O.2     1  UNL1       -0.2865
      2 O           4.6660   -2.1754    0.0000 O.2     1  UNL1       -0.2866
      3 O           6.4144    1.8592    0.0000 O.3     1  UNL1       -0.5060
      4 C           5.5321    0.3246    0.0000 C.ar    1  UNL1        0.0744
      5 C           5.5321   -0.6754    0.0000 C.ar    1  UNL1        0.0366
      6 C           3.8000    0.3246    0.0000 C.ar    1  UNL1        0.0332
      7 C           3.8000   -0.6754    0.0000 C.ar    1  UNL1        0.0331
      8 C           4.6660    0.8246    0.0000 C.2     1  UNL1        0.1980
      9 C           4.6660   -1.1754    0.0000 C.2     1  UNL1        0.1946
     10 C           6.4260    0.8593    0.0000 C.ar    1  UNL1        0.1283
     11 C           6.4260   -1.2100    0.0000 C.ar    1  UNL1       -0.0500
     12 C           2.9061    0.8593    0.0000 C.ar    1  UNL1       -0.0502
     13 C           2.9061   -1.2100    0.0000 C.ar    1  UNL1       -0.0502
     14 C           7.3321    0.3454    0.0000 C.ar    1  UNL1       -0.0194
     15 C           7.3321   -0.6962    0.0000 C.ar    1  UNL1       -0.0576
     16 C           2.0000    0.3454    0.0000 C.ar    1  UNL1       -0.0610
     17 C           2.0000   -0.6962    0.0000 C.ar    1  UNL1       -0.0610
     18 H           6.4188   -1.8300    0.0000 H       1  UNL1        0.0625
     19 H           2.9132    1.4792    0.0000 H       1  UNL1        0.0625
     20 H           2.9132   -1.8300    0.0000 H       1  UNL1        0.0625
     21 H           7.8678    0.6575    0.0000 H       1  UNL1        0.0654
     22 H           7.8678   -1.0083    0.0000 H       1  UNL1        0.0619
     23 H           1.4643    0.6575    0.0000 H       1  UNL1        0.0618
     24 H           1.4643   -1.0083    0.0000 H       1  UNL1        0.0618
     25 H           6.9478    2.1754    0.0000 H       1  UNL1        0.2922
@<TRIPOS>BOND
     1     1     8    2
     2     2     9    2
     3     3    10    1
     4     3    25    1
     5     4     5   ar
     6     4     8    1
     7     4    10   ar
     8     5     9    1
     9     5    11   ar
    10     6     7   ar
    11     6     8    1
    12     6    12   ar
    13     7     9    1
    14     7    13   ar
    15    10    14   ar
    16    11    15   ar
    17    11    18    1
    18    12    16   ar
    19    12    19    1
    20    13    17   ar
    21    13    20    1
    22    14    15   ar
    23    14    21    1
    24    15    22    1
    25    16    17   ar
    26    16    23    1
    27    17    24    1
