@<TRIPOS>MOLECULE
IMPHY008446
 36 39 0 0 0
SMALL
GASTEIGER

@<TRIPOS>ATOM
      1 O           3.7702    0.4653    0.0000 O.2     1  UNL1       -0.4214
      2 O           7.2901   -2.5347    0.0000 O.2     1  UNL1       -0.4220
      3 O           3.7981   -0.5000    0.0000 O.3     1  UNL1       -0.5029
      4 O           7.2622    0.5000    0.0000 O.3     1  UNL1       -0.5028
      5 O           7.2622    2.5000    0.0000 O.3     1  UNL1       -0.5033
      6 O           3.7981   -2.5000    0.0000 O.3     1  UNL1       -0.5032
      7 O           2.0000    0.4758    0.0000 O.2     1  UNL1       -0.2452
      8 O           9.0602   -2.5242    0.0000 O.2     1  UNL1       -0.2452
      9 C           5.5301   -0.5000    0.0000 C.ar    1  UNL1        0.0450
     10 C           5.5301    0.5000    0.0000 C.ar    1  UNL1        0.0744
     11 C           6.3961   -1.0000    0.0000 C.ar    1  UNL1        0.0293
     12 C           4.6641    1.0000    0.0000 C.ar    1  UNL1        0.1506
     13 C           4.6641    2.0000    0.0000 C.ar    1  UNL1        0.0219
     14 C           4.6641   -1.0000    0.0000 C.ar    1  UNL1        0.1671
     15 C           6.3961    1.0000    0.0000 C.ar    1  UNL1        0.1698
     16 C           6.3961   -2.0000    0.0000 C.ar    1  UNL1        0.1433
     17 C           6.3961    2.0000    0.0000 C.ar    1  UNL1        0.1596
     18 C           4.6641   -2.0000    0.0000 C.ar    1  UNL1        0.1624
     19 C           5.5301    2.5000    0.0000 C.ar    1  UNL1       -0.0058
     20 C           5.5301   -2.5000    0.0000 C.ar    1  UNL1        0.0265
     21 C           7.2901   -0.4653    0.0000 C.ar    1  UNL1       -0.0436
     22 C           3.7702    2.5347    0.0000 C.ar    1  UNL1       -0.0442
     23 C           8.1962   -0.9792    0.0000 C.ar    1  UNL1        0.0236
     24 C           2.8641    2.0208    0.0000 C.ar    1  UNL1        0.0236
     25 C           2.8641    0.9792    0.0000 C.ar    1  UNL1        0.3372
     26 C           8.1962   -2.0208    0.0000 C.ar    1  UNL1        0.3372
     27 H           5.5301    3.1200    0.0000 H       1  UNL1        0.0662
     28 H           5.5301   -3.1200    0.0000 H       1  UNL1        0.0692
     29 H           7.2829    0.1546    0.0000 H       1  UNL1        0.0627
     30 H           3.7773    3.1546    0.0000 H       1  UNL1        0.0627
     31 H           8.7319   -0.6671    0.0000 H       1  UNL1        0.0689
     32 H           2.3284    2.3329    0.0000 H       1  UNL1        0.0689
     33 H           3.2611   -0.8100    0.0000 H       1  UNL1        0.2923
     34 H           7.7991    0.8100    0.0000 H       1  UNL1        0.2923
     35 H           7.2622    3.1200    0.0000 H       1  UNL1        0.2923
     36 H           3.7981   -3.1200    0.0000 H       1  UNL1        0.2923
@<TRIPOS>BOND
     1     1    12   ar
     2     1    25   ar
     3     2    16   ar
     4     2    26   ar
     5     3    14    1
     6     3    33    1
     7     4    15    1
     8     4    34    1
     9     5    17    1
    10     5    35    1
    11     6    18    1
    12     6    36    1
    13     7    25    2
    14     8    26    2
    15     9    10    1
    16     9    11   ar
    17     9    14   ar
    18    10    12   ar
    19    10    15   ar
    20    11    16   ar
    21    11    21   ar
    22    12    13   ar
    23    13    19   ar
    24    13    22   ar
    25    14    18   ar
    26    15    17   ar
    27    16    20   ar
    28    17    19   ar
    29    18    20   ar
    30    19    27    1
    31    20    28    1
    32    21    23   ar
    33    21    29    1
    34    22    24   ar
    35    22    30    1
    36    23    26   ar
    37    23    31    1
    38    24    25   ar
    39    24    32    1
