@<TRIPOS>MOLECULE
IMPHY017641
 48 47 0 0 0
SMALL
GASTEIGER

@<TRIPOS>ATOM
      1 O           2.0000   -3.5600    0.0000 O.2     1  UNL1       -0.3010
      2 C           4.5981   -0.0600    0.0000 C.3     1  UNL1       -0.0528
      3 C           3.7320   -0.5600    0.0000 C.3     1  UNL1       -0.0527
      4 C           4.5981    0.9400    0.0000 C.3     1  UNL1       -0.0496
      5 C           3.7320   -1.5600    0.0000 C.3     1  UNL1       -0.0466
      6 C           5.4641    1.4400    0.0000 C.3     1  UNL1       -0.0348
      7 C           9.7942    0.9400    0.0000 C.3     1  UNL1       -0.0496
      8 C           9.7942   -0.0600    0.0000 C.3     1  UNL1       -0.0530
      9 C           2.8660   -2.0600    0.0000 C.3     1  UNL1        0.0028
     10 C           8.9282    1.4400    0.0000 C.3     1  UNL1       -0.0348
     11 C          10.6603   -0.5600    0.0000 C.3     1  UNL1       -0.0559
     12 C           5.4641    2.4400    0.0000 C.2     1  UNL1       -0.0876
     13 C           8.9282    2.4400    0.0000 C.2     1  UNL1       -0.0876
     14 C           7.1962    2.4400    0.0000 C.3     1  UNL1       -0.0165
     15 C           6.3301    2.9400    0.0000 C.2     1  UNL1       -0.0842
     16 C           8.0622    2.9400    0.0000 C.2     1  UNL1       -0.0842
     17 C          10.6603   -1.5600    0.0000 C.3     1  UNL1       -0.0653
     18 C           2.8660   -3.0600    0.0000 C.2     1  UNL1        0.1203
     19 H           4.8101   -0.6426    0.0000 H       1  UNL1        0.0265
     20 H           5.2087    0.0477    0.0000 H       1  UNL1        0.0265
     21 H           3.5200    0.0226    0.0000 H       1  UNL1        0.0265
     22 H           3.1215   -0.6677    0.0000 H       1  UNL1        0.0265
     23 H           4.3860    1.5226    0.0000 H       1  UNL1        0.0268
     24 H           3.9875    0.8323    0.0000 H       1  UNL1        0.0268
     25 H           3.9441   -2.1426    0.0000 H       1  UNL1        0.0269
     26 H           4.3426   -1.4523    0.0000 H       1  UNL1        0.0269
     27 H           5.6762    0.8574    0.0000 H       1  UNL1        0.0307
     28 H           6.0747    1.5477    0.0000 H       1  UNL1        0.0307
     29 H          10.4048    0.8323    0.0000 H       1  UNL1        0.0268
     30 H          10.0063    1.5226    0.0000 H       1  UNL1        0.0268
     31 H           9.1836    0.0477    0.0000 H       1  UNL1        0.0265
     32 H           9.5822   -0.6426    0.0000 H       1  UNL1        0.0265
     33 H           2.6540   -1.4774    0.0000 H       1  UNL1        0.0339
     34 H           2.2554   -2.1677    0.0000 H       1  UNL1        0.0339
     35 H           8.3176    1.5477    0.0000 H       1  UNL1        0.0307
     36 H           8.7162    0.8574    0.0000 H       1  UNL1        0.0307
     37 H          11.2708   -0.6677    0.0000 H       1  UNL1        0.0263
     38 H          10.8723    0.0226    0.0000 H       1  UNL1        0.0263
     39 H           4.9272    2.7500    0.0000 H       1  UNL1        0.0569
     40 H           9.4651    2.7500    0.0000 H       1  UNL1        0.0569
     41 H           6.7976    1.9650    0.0000 H       1  UNL1        0.0350
     42 H           7.5947    1.9650    0.0000 H       1  UNL1        0.0350
     43 H           6.3301    3.5600    0.0000 H       1  UNL1        0.0572
     44 H           8.0622    3.5600    0.0000 H       1  UNL1        0.0572
     45 H          10.0403   -1.5600    0.0000 H       1  UNL1        0.0230
     46 H          10.6603   -2.1800    0.0000 H       1  UNL1        0.0230
     47 H          11.2803   -1.5600    0.0000 H       1  UNL1        0.0230
     48 H           3.4030   -3.3700    0.0000 H       1  UNL1        0.1026
@<TRIPOS>BOND
     1     1    18    2
     2     2     3    1
     3     2     4    1
     4     2    19    1
     5     2    20    1
     6     3     5    1
     7     3    21    1
     8     3    22    1
     9     4     6    1
    10     4    23    1
    11     4    24    1
    12     5     9    1
    13     5    25    1
    14     5    26    1
    15     6    12    1
    16     6    27    1
    17     6    28    1
    18     7     8    1
    19     7    10    1
    20     7    29    1
    21     7    30    1
    22     8    11    1
    23     8    31    1
    24     8    32    1
    25     9    18    1
    26     9    33    1
    27     9    34    1
    28    10    13    1
    29    10    35    1
    30    10    36    1
    31    11    17    1
    32    11    37    1
    33    11    38    1
    34    12    15    2
    35    12    39    1
    36    13    16    2
    37    13    40    1
    38    14    15    1
    39    14    16    1
    40    14    41    1
    41    14    42    1
    42    15    43    1
    43    16    44    1
    44    17    45    1
    45    17    46    1
    46    17    47    1
    47    18    48    1
