@<TRIPOS>MOLECULE
IMPHY004748
 73 77 0 0 0
SMALL
GASTEIGER

@<TRIPOS>ATOM
      1 O           6.8671   -2.0356    0.0000 O.3     1  UNL1       -0.3399
      2 O           7.7331    0.4644    0.0000 O.3     1  UNL1       -0.3609
      3 O           5.1350   -2.0356    0.0000 O.3     1  UNL1       -0.3405
      4 O           5.1350   -1.0356    0.0000 O.3     1  UNL1       -0.3865
      5 O           5.1350    0.9644    0.0000 O.3     1  UNL1       -0.3865
      6 O           6.8671   -4.0357    0.0000 O.3     1  UNL1       -0.3841
      7 O           5.1350   -5.0357    0.0000 O.3     1  UNL1       -0.3864
      8 O           3.4030   -4.0357    0.0000 O.3     1  UNL1       -0.3865
      9 O           6.0010    2.4644    0.0000 O.3     1  UNL1       -0.3924
     10 O           9.4491    0.5059    0.0000 O.2     1  UNL1       -0.4540
     11 O           2.5369   -2.5356    0.0000 O.3     1  UNL1       -0.3924
     12 O           7.7331   -2.5356    0.0000 O.3     1  UNL1       -0.5062
     13 O          11.1972   -2.5356    0.0000 O.3     1  UNL1       -0.5058
     14 O          12.1014   -1.0388    0.0000 O.2     1  UNL1       -0.2869
     15 O           8.6035    4.0269    0.0000 O.3     1  UNL1       -0.5033
     16 O          10.3317    5.0336    0.0000 O.3     1  UNL1       -0.5033
     17 C           6.8671   -1.0356    0.0000 C.3     1  UNL1        0.1204
     18 C           6.0010   -0.5356    0.0000 C.3     1  UNL1        0.1124
     19 C           7.7331   -0.5356    0.0000 C.3     1  UNL1        0.1197
     20 C           6.0010    0.4644    0.0000 C.3     1  UNL1        0.1118
     21 C           6.8671    0.9644    0.0000 C.3     1  UNL1        0.1108
     22 C           6.0010   -2.5356    0.0000 C.3     1  UNL1        0.1884
     23 C           6.0010   -3.5356    0.0000 C.3     1  UNL1        0.1341
     24 C           5.1350   -4.0357    0.0000 C.3     1  UNL1        0.1141
     25 C           4.2690   -3.5356    0.0000 C.3     1  UNL1        0.1119
     26 C           4.2690   -2.5356    0.0000 C.3     1  UNL1        0.1130
     27 C           8.5991   -1.0356    0.0000 C.ar    1  UNL1        0.0682
     28 C           6.8671    1.9644    0.0000 C.3     1  UNL1        0.0729
     29 C           3.4030   -2.0356    0.0000 C.3     1  UNL1        0.0730
     30 C           9.4651   -0.5356    0.0000 C.ar    1  UNL1        0.1520
     31 C           8.5991   -2.0356    0.0000 C.ar    1  UNL1        0.1296
     32 C          10.3312   -1.0356    0.0000 C.ar    1  UNL1        0.1058
     33 C           9.4651   -2.5356    0.0000 C.ar    1  UNL1        0.0226
     34 C          10.3312   -2.0356    0.0000 C.ar    1  UNL1        0.1347
     35 C          11.2412   -0.5288    0.0000 C.ar    1  UNL1        0.1966
     36 C          10.3471    1.0336    0.0000 C.ar    1  UNL1        0.1394
     37 C          11.2492    0.5128    0.0000 C.ar    1  UNL1        0.0288
     38 C          10.3433    2.0336    0.0000 C.ar    1  UNL1        0.0211
     39 C           9.4753    2.5303    0.0000 C.ar    1  UNL1       -0.0059
     40 C          11.2074    2.5369    0.0000 C.ar    1  UNL1       -0.0474
     41 C           9.4715    3.5303    0.0000 C.ar    1  UNL1        0.1589
     42 C          11.2035    3.5369    0.0000 C.ar    1  UNL1       -0.0159
     43 C          10.3356    4.0336    0.0000 C.ar    1  UNL1        0.1583
     44 H           7.4040   -1.3456    0.0000 H       1  UNL1        0.0653
     45 H           5.4641   -0.2256    0.0000 H       1  UNL1        0.0647
     46 H           8.4692   -0.1106    0.0000 H       1  UNL1        0.0676
     47 H           6.0010    1.0844    0.0000 H       1  UNL1        0.0647
     48 H           7.4040    1.2744    0.0000 H       1  UNL1        0.0646
     49 H           6.0010   -1.9156    0.0000 H       1  UNL1        0.0938
     50 H           6.0010   -4.1556    0.0000 H       1  UNL1        0.0671
     51 H           4.5981   -4.3456    0.0000 H       1  UNL1        0.0648
     52 H           3.7320   -3.2256    0.0000 H       1  UNL1        0.0647
     53 H           4.2690   -1.9156    0.0000 H       1  UNL1        0.0647
     54 H           7.4776    1.8567    0.0000 H       1  UNL1        0.0584
     55 H           7.0791    2.5470    0.0000 H       1  UNL1        0.0584
     56 H           4.5981   -0.7256    0.0000 H       1  UNL1        0.2100
     57 H           3.8015   -1.5607    0.0000 H       1  UNL1        0.0584
     58 H           3.0044   -1.5607    0.0000 H       1  UNL1        0.0584
     59 H           4.5981    0.6544    0.0000 H       1  UNL1        0.2100
     60 H           7.4040   -3.7256    0.0000 H       1  UNL1        0.2101
     61 H           5.6720   -5.3456    0.0000 H       1  UNL1        0.2100
     62 H           3.4030   -4.6556    0.0000 H       1  UNL1        0.2100
     63 H           9.4651   -3.1556    0.0000 H       1  UNL1        0.0691
     64 H           6.0010    3.0844    0.0000 H       1  UNL1        0.2095
     65 H           2.0000   -2.2256    0.0000 H       1  UNL1        0.2095
     66 H           7.7331   -3.1556    0.0000 H       1  UNL1        0.2922
     67 H          11.7873    0.8207    0.0000 H       1  UNL1        0.0693
     68 H          11.1972   -3.1556    0.0000 H       1  UNL1        0.2922
     69 H           8.9396    2.2182    0.0000 H       1  UNL1        0.0662
     70 H          11.7455    2.2290    0.0000 H       1  UNL1        0.0626
     71 H          11.7392    3.8490    0.0000 H       1  UNL1        0.0655
     72 H           8.6011    4.6469    0.0000 H       1  UNL1        0.2923
     73 H          10.8674    5.3456    0.0000 H       1  UNL1        0.2923
@<TRIPOS>BOND
     1     1    17    1
     2    22     1    1
     3     2    19    1
     4     2    21    1
     5     3    22    1
     6     3    26    1
     7    18     4    1
     8     4    56    1
     9    20     5    1
    10     5    59    1
    11     6    23    1
    12     6    60    1
    13    24     7    1
    14     7    61    1
    15    25     8    1
    16     8    62    1
    17     9    28    1
    18     9    64    1
    19    10    30   ar
    20    10    36   ar
    21    11    29    1
    22    11    65    1
    23    12    31    1
    24    12    66    1
    25    13    34    1
    26    13    68    1
    27    14    35    2
    28    15    41    1
    29    15    72    1
    30    16    43    1
    31    16    73    1
    32    17    18    1
    33    17    19    1
    34    17    44    1
    35    18    20    1
    36    18    45    1
    37    19    27    1
    38    19    46    1
    39    20    21    1
    40    20    47    1
    41    21    28    1
    42    21    48    1
    43    22    23    1
    44    22    49    1
    45    23    24    1
    46    23    50    1
    47    24    25    1
    48    24    51    1
    49    25    26    1
    50    25    52    1
    51    26    29    1
    52    26    53    1
    53    27    30   ar
    54    27    31   ar
    55    28    54    1
    56    28    55    1
    57    29    57    1
    58    29    58    1
    59    30    32   ar
    60    31    33   ar
    61    32    34   ar
    62    32    35   ar
    63    33    34   ar
    64    33    63    1
    65    35    37   ar
    66    36    37   ar
    67    36    38    1
    68    37    67    1
    69    38    39   ar
    70    38    40   ar
    71    39    41   ar
    72    39    69    1
    73    40    42   ar
    74    40    70    1
    75    41    43   ar
    76    42    43   ar
    77    42    71    1
