@<TRIPOS>MOLECULE
IMPHY003303
 91 98 0 0 0
SMALL
GASTEIGER

@<TRIPOS>ATOM
      1 O           7.1742    2.3520    0.0000 O.3     1  UNL1       -0.4478
      2 O           7.3060    3.4410    0.0000 O.3     1  UNL1       -0.4487
      3 O           8.6999    4.2458    0.0000 O.3     1  UNL1       -0.4488
      4 O          10.6411    3.2739    0.0000 O.3     1  UNL1       -0.4910
      5 O           7.2704    1.2937    0.0000 O.3     1  UNL1       -0.4885
      6 O           5.9022   -0.0534    0.0000 O.3     1  UNL1       -0.4913
      7 O           4.9637   -3.1289    0.0000 O.3     1  UNL1       -0.4523
      8 O           3.0190   -3.9487    0.0000 O.3     1  UNL1       -0.4914
      9 N           9.7910   -0.2953    0.0000 N.3     1  UNL1       -0.2977
     10 N           2.9992    2.0832    0.0000 N.3     1  UNL1       -0.2978
     11 C           8.8930    0.2324    0.0000 C.3     1  UNL1        0.0433
     12 C           8.9091    1.2739    0.0000 C.ar    1  UNL1        0.0228
     13 C           3.4937    1.2128    0.0000 C.3     1  UNL1        0.0398
     14 C           9.7751    1.7739    0.0000 C.ar    1  UNL1        0.0075
     15 C          10.6931    0.2255    0.0000 C.3     1  UNL1        0.0033
     16 C          10.6851    1.2671    0.0000 C.3     1  UNL1       -0.0108
     17 C           4.1960    1.9847    0.0000 C.ar    1  UNL1       -0.0196
     18 C           5.1228    2.4644    0.0000 C.ar    1  UNL1        0.0047
     19 C           8.9182   -0.8109    0.0000 C.3     1  UNL1       -0.0078
     20 C           4.4093    3.1665    0.0000 C.3     1  UNL1       -0.0109
     21 C           8.0430    1.7739    0.0000 C.ar    1  UNL1        0.1790
     22 C           3.4240    2.9896    0.0000 C.3     1  UNL1        0.0033
     23 C           3.1034    0.2450    0.0000 C.3     1  UNL1       -0.0078
     24 C           6.1586    2.5922    0.0000 C.ar    1  UNL1        0.1772
     25 C           9.7751    2.7739    0.0000 C.ar    1  UNL1        0.1690
     26 C           8.0430    2.7739    0.0000 C.ar    1  UNL1        0.2121
     27 C           8.9091    3.2739    0.0000 C.ar    1  UNL1        0.2115
     28 C           9.7872   -1.2953    0.0000 C.3     1  UNL1       -0.0122
     29 C           4.6212    1.0785    0.0000 C.ar    1  UNL1       -0.0111
     30 C           8.5792   -1.7979    0.0000 C.ar    1  UNL1       -0.0453
     31 C           2.0000    2.0440    0.0000 C.3     1  UNL1       -0.0122
     32 C           6.3198    1.6042    0.0000 C.ar    1  UNL1        0.2044
     33 C           3.0737   -0.7982    0.0000 C.ar    1  UNL1       -0.0419
     34 C           5.6065    0.9019    0.0000 C.ar    1  UNL1        0.1655
     35 C           7.7111    4.3488    0.0000 C.3     1  UNL1        0.2336
     36 C           7.6988   -2.2735    0.0000 C.ar    1  UNL1       -0.0550
     37 C           7.9184   -2.6056    0.0000 C.ar    1  UNL1       -0.0550
     38 C           3.4083   -1.7867    0.0000 C.ar    1  UNL1       -0.0124
     39 C           2.2722   -1.3979    0.0000 C.ar    1  UNL1       -0.0548
     40 C           4.0656   -2.5972    0.0000 C.ar    1  UNL1        0.1701
     41 C           6.8356   -2.7795    0.0000 C.ar    1  UNL1       -0.0191
     42 C           7.0181   -3.1333    0.0000 C.ar    1  UNL1       -0.0191
     43 C           5.9905   -3.3153    0.0000 C.ar    1  UNL1        0.1286
     44 C           2.2986   -2.3985    0.0000 C.ar    1  UNL1       -0.0160
     45 C          10.6411    4.2739    0.0000 C.3     1  UNL1        0.0790
     46 C           3.1307   -2.9550    0.0000 C.ar    1  UNL1        0.1621
     47 C           7.4768    0.3153    0.0000 C.3     1  UNL1        0.0791
     48 C           5.2227   -0.7871    0.0000 C.3     1  UNL1        0.0790
     49 C           2.1025   -4.3488    0.0000 C.3     1  UNL1        0.0790
     50 H           8.0430    0.2287    0.0000 H       1  UNL1        0.0517
     51 H           3.9136    0.4738    0.0000 H       1  UNL1        0.0515
     52 H          10.9067   -0.3566    0.0000 H       1  UNL1        0.0430
     53 H          11.3031    0.3363    0.0000 H       1  UNL1        0.0430
     54 H          11.2967    1.1657    0.0000 H       1  UNL1        0.0327
     55 H          10.8896    1.8524    0.0000 H       1  UNL1        0.0327
     56 H           9.3776   -1.2271    0.0000 H       1  UNL1        0.0332
     57 H           8.3054   -0.7162    0.0000 H       1  UNL1        0.0332
     58 H           4.9251    3.5105    0.0000 H       1  UNL1        0.0327
     59 H           4.1776    3.7416    0.0000 H       1  UNL1        0.0327
     60 H           3.4412    3.6094    0.0000 H       1  UNL1        0.0430
     61 H           2.8208    3.1328    0.0000 H       1  UNL1        0.0430
     62 H           2.6664    0.6848    0.0000 H       1  UNL1        0.0332
     63 H           3.7103    0.1182    0.0000 H       1  UNL1        0.0332
     64 H           9.1672   -1.2929    0.0000 H       1  UNL1        0.0391
     65 H           9.7848   -1.9153    0.0000 H       1  UNL1        0.0391
     66 H          10.4072   -1.2977    0.0000 H       1  UNL1        0.0391
     67 H           4.2436    0.5867    0.0000 H       1  UNL1        0.0659
     68 H           1.9757    2.6636    0.0000 H       1  UNL1        0.0391
     69 H           1.3805    2.0197    0.0000 H       1  UNL1        0.0391
     70 H           2.0243    1.4245    0.0000 H       1  UNL1        0.0391
     71 H           7.8399    4.9553    0.0000 H       1  UNL1        0.1166
     72 H           7.1215    4.5406    0.0000 H       1  UNL1        0.1166
     73 H           7.3947   -1.7332    0.0000 H       1  UNL1        0.0621
     74 H           8.3214   -3.0767    0.0000 H       1  UNL1        0.0621
     75 H           2.8654   -2.0860    0.0000 H       1  UNL1        0.0658
     76 H           1.7142   -1.1276    0.0000 H       1  UNL1        0.0621
     77 H           6.5127   -2.2502    0.0000 H       1  UNL1        0.0654
     78 H           7.2323   -3.7152    0.0000 H       1  UNL1        0.0654
     79 H           1.7557   -2.6979    0.0000 H       1  UNL1        0.0655
     80 H          11.2611    4.2739    0.0000 H       1  UNL1        0.0660
     81 H          10.6411    4.8939    0.0000 H       1  UNL1        0.0660
     82 H          10.0211    4.2739    0.0000 H       1  UNL1        0.0660
     83 H           6.8701    0.1873    0.0000 H       1  UNL1        0.0660
     84 H           7.6047   -0.2914    0.0000 H       1  UNL1        0.0660
     85 H           8.0834    0.4432    0.0000 H       1  UNL1        0.0660
     86 H           4.7678   -0.3658    0.0000 H       1  UNL1        0.0660
     87 H           4.8014   -1.2420    0.0000 H       1  UNL1        0.0660
     88 H           5.6776   -1.2083    0.0000 H       1  UNL1        0.0660
     89 H           1.8544   -3.7806    0.0000 H       1  UNL1        0.0660
     90 H           1.5343   -4.5969    0.0000 H       1  UNL1        0.0660
     91 H           2.3506   -4.9170    0.0000 H       1  UNL1        0.0660
@<TRIPOS>BOND
     1     1    21    1
     2     1    24    1
     3     2    26    1
     4     2    35    1
     5     3    27    1
     6     3    35    1
     7     4    25    1
     8     4    45    1
     9     5    32    1
    10     5    47    1
    11     6    34    1
    12     6    48    1
    13     7    40    1
    14     7    43    1
    15     8    46    1
    16     8    49    1
    17     9    11    1
    18     9    15    1
    19     9    28    1
    20    10    13    1
    21    10    22    1
    22    10    31    1
    23    11    12    1
    24    11    19    1
    25    11    50    1
    26    12    14   ar
    27    12    21   ar
    28    13    17    1
    29    13    23    1
    30    13    51    1
    31    14    16    1
    32    14    25   ar
    33    15    16    1
    34    15    52    1
    35    15    53    1
    36    16    54    1
    37    16    55    1
    38    17    18   ar
    39    17    29   ar
    40    18    20    1
    41    18    24   ar
    42    19    30    1
    43    19    56    1
    44    19    57    1
    45    20    22    1
    46    20    58    1
    47    20    59    1
    48    21    26   ar
    49    22    60    1
    50    22    61    1
    51    23    33    1
    52    23    62    1
    53    23    63    1
    54    24    32   ar
    55    25    27   ar
    56    26    27   ar
    57    28    64    1
    58    28    65    1
    59    28    66    1
    60    29    34   ar
    61    29    67    1
    62    30    36   ar
    63    30    37   ar
    64    31    68    1
    65    31    69    1
    66    31    70    1
    67    32    34   ar
    68    33    38   ar
    69    33    39   ar
    70    35    71    1
    71    35    72    1
    72    36    41   ar
    73    36    73    1
    74    37    42   ar
    75    37    74    1
    76    38    40   ar
    77    38    75    1
    78    39    44   ar
    79    39    76    1
    80    40    46   ar
    81    41    43   ar
    82    41    77    1
    83    42    43   ar
    84    42    78    1
    85    44    46   ar
    86    44    79    1
    87    45    80    1
    88    45    81    1
    89    45    82    1
    90    47    83    1
    91    47    84    1
    92    47    85    1
    93    48    86    1
    94    48    87    1
    95    48    88    1
    96    49    89    1
    97    49    90    1
    98    49    91    1
