@<TRIPOS>MOLECULE
IMPHY003717
 28 32 0 0 0
SMALL
GASTEIGER

@<TRIPOS>ATOM
      1 C           4.8600    4.7949    0.0000 C.ar    1  UNL1        0.0695
      2 C           5.8460    4.5728    0.0000 C.3     1  UNL1        0.0981
      3 C           4.5620    5.7594    0.0000 C.ar    1  UNL1       -0.0045
      4 N           4.0771    4.2315    0.0000 N.ar    1  UNL1       -0.2486
      5 N           6.5314    5.3151    0.0000 N.3     1  UNL1       -0.2686
      6 C           6.1467    3.6084    0.0000 C.3     1  UNL1        0.0269
      7 C           3.5705    5.7594    0.0000 C.ar    1  UNL1        0.0151
      8 C           5.2473    6.5016    0.0000 C.3     1  UNL1        0.0450
      9 C           3.2752    4.8220    0.0000 C.ar    1  UNL1        0.0837
     10 C           7.5148    5.0929    0.0000 C.3     1  UNL1        0.0763
     11 C           6.2307    6.2795    0.0000 C.3     1  UNL1        0.0771
     12 C           7.1301    3.3863    0.0000 C.3     1  UNL1        0.0384
     13 C           2.9068    6.4854    0.0000 C.ar    1  UNL1        0.0043
     14 C           2.3162    4.6080    0.0000 C.ar    1  UNL1        0.0559
     15 C           7.8155    4.1285    0.0000 C.3     1  UNL1        0.0604
     16 C           7.4308    2.4246    0.0000 C.2     1  UNL1        0.0901
     17 C           1.9451    6.2714    0.0000 C.ar    1  UNL1        0.0370
     18 C           1.6498    5.3313    0.0000 C.ar    1  UNL1        0.1402
     19 C           8.8016    3.9064    0.0000 C.3     1  UNL1        0.1677
     20 C           6.7536    1.6877    0.0000 C.2     1  UNL1        0.3403
     21 C           8.4142    2.2024    0.0000 C.2     1  UNL1        0.1741
     22 O           0.6745    5.1146    0.0000 O.3     1  UNL1       -0.4714
     23 O           9.0996    2.9447    0.0000 O.2     1  UNL1       -0.4762
     24 C           9.4815    4.6405    0.0000 C.3     1  UNL1        0.0473
     25 O           7.0488    0.7341    0.0000 O.3     1  UNL1       -0.4415
     26 O           5.7756    1.9071    0.0000 O.2     1  UNL1       -0.2451
     27 C           0.0000    5.8515    0.0000 C.3     1  UNL1        0.2525
     28 C           6.3716    0.0000    0.0000 C.3     1  UNL1        0.2559
@<TRIPOS>BOND
     1     1     3   ar
     2     1     4   ar
     3     2     1    1
     4     2     5    1
     5     2     6    1
     6     3     7   ar
     7     3     8    1
     8     4     9   ar
     9     5    10    1
    10     5    11    1
    11     7     9   ar
    12     7    13   ar
    13     8    11    1
    14     9    14   ar
    15    12     6    1
    16    12    15    1
    17    12    16    1
    18    13    17   ar
    19    14    18   ar
    20    15    10    1
    21    15    19    1
    22    16    20    1
    23    16    21    2
    24    17    18   ar
    25    18    22    1
    26    19    23    1
    27    19    24    1
    28    20    25    1
    29    20    26    2
    30    21    23    1
    31    22    27    1
    32    25    28    1
