@<TRIPOS>MOLECULE
IMPHY017602
 40 42 0 0 0
SMALL
GASTEIGER

@<TRIPOS>ATOM
      1 O           2.4545    1.0870    0.0000 O.3     1  UNL1       -0.3941
      2 C           5.2666   -0.7073    0.0000 C.3     1  UNL1       -0.0224
      3 C           4.3656   -0.2734    0.0000 C.3     1  UNL1       -0.0239
      4 C           5.1598    0.4695    0.0000 C.3     1  UNL1       -0.0403
      5 C           5.1306   -1.6920    0.0000 C.3     1  UNL1       -0.0379
      6 C           4.1431    0.7015    0.0000 C.3     1  UNL1        0.0153
      7 C           5.7666    1.4834    0.0000 C.3     1  UNL1       -0.0190
      8 C           6.1676   -0.2734    0.0000 C.3     1  UNL1       -0.0463
      9 C           3.6805   -0.9937    0.0000 C.3     1  UNL1       -0.0486
     10 C           6.3901    0.7015    0.0000 C.3     1  UNL1       -0.0460
     11 C           4.1524   -1.8687    0.0000 C.3     1  UNL1       -0.0497
     12 C           4.7666    1.4834    0.0000 C.2     1  UNL1       -0.0652
     13 C           3.4101    1.3817    0.0000 C.3     1  UNL1        0.0535
     14 C           5.8522   -2.3843    0.0000 C.3     1  UNL1       -0.0619
     15 C           3.1875    0.4068    0.0000 C.3     1  UNL1       -0.0535
     16 C           4.3327    2.3843    0.0000 C.2     1  UNL1       -0.0986
     17 H           3.7678   -0.1092    0.0000 H       1  UNL1        0.0315
     18 H           4.7520    0.9365    0.0000 H       1  UNL1        0.0276
     19 H           4.5897    0.2257    0.0000 H       1  UNL1        0.0276
     20 H           4.9515   -2.2856    0.0000 H       1  UNL1        0.0304
     21 H           5.9558    2.3120    0.0000 H       1  UNL1        0.0346
     22 H           6.3055   -0.8779    0.0000 H       1  UNL1        0.0271
     23 H           6.7876   -0.2734    0.0000 H       1  UNL1        0.0271
     24 H           3.2787   -0.5216    0.0000 H       1  UNL1        0.0268
     25 H           3.1688   -1.3437    0.0000 H       1  UNL1        0.0268
     26 H           6.9487    0.4325    0.0000 H       1  UNL1        0.0271
     27 H           6.7767    1.1863    0.0000 H       1  UNL1        0.0271
     28 H           3.5787   -2.1040    0.0000 H       1  UNL1        0.0268
     29 H           4.3261   -2.4638    0.0000 H       1  UNL1        0.0268
     30 H           3.9043    1.7561    0.0000 H       1  UNL1        0.0566
     31 H           3.1272    1.9334    0.0000 H       1  UNL1        0.0566
     32 H           5.4230   -2.8317    0.0000 H       1  UNL1        0.0233
     33 H           6.2996   -2.8136    0.0000 H       1  UNL1        0.0233
     34 H           6.2814   -1.9369    0.0000 H       1  UNL1        0.0233
     35 H           3.0048    0.9992    0.0000 H       1  UNL1        0.0239
     36 H           2.5951    0.2240    0.0000 H       1  UNL1        0.0239
     37 H           3.3703   -0.1857    0.0000 H       1  UNL1        0.0239
     38 H           4.6820    2.8966    0.0000 H       1  UNL1        0.0535
     39 H           3.7145    2.4307    0.0000 H       1  UNL1        0.0535
     40 H           2.0000    1.5086    0.0000 H       1  UNL1        0.2094
@<TRIPOS>BOND
     1     1    13    1
     2     1    40    1
     3     2     3    1
     4     2     4    1
     5     2     5    1
     6     2     8    1
     7     3     6    1
     8     3     9    1
     9     3    17    1
    10     4     7    1
    11     4    18    1
    12     4    19    1
    13     5    11    1
    14     5    14    1
    15     5    20    1
    16     6    12    1
    17     6    13    1
    18     6    15    1
    19     7    10    1
    20     7    12    1
    21     7    21    1
    22     8    10    1
    23     8    22    1
    24     8    23    1
    25     9    11    1
    26     9    24    1
    27     9    25    1
    28    10    26    1
    29    10    27    1
    30    11    28    1
    31    11    29    1
    32    12    16    2
    33    13    30    1
    34    13    31    1
    35    14    32    1
    36    14    33    1
    37    14    34    1
    38    15    35    1
    39    15    36    1
    40    15    37    1
    41    16    38    1
    42    16    39    1
