@<TRIPOS>MOLECULE
IMPHY008839
 23 25 0 0 0
SMALL
GASTEIGER

@<TRIPOS>ATOM
      1 O           6.8671    2.4827    0.0000 O.2     1  UNL1       -0.4501
      2 O           2.5369    0.9827    0.0000 O.3     1  UNL1       -0.4681
      3 O           4.2690   -2.0173    0.0000 O.3     1  UNL1       -0.4681
      4 O           6.8671   -0.5173    0.0000 O.2     1  UNL1       -0.2864
      5 O           2.5369   -1.0173    0.0000 O.3     1  UNL1       -0.2801
      6 O          10.3972    2.5068    0.0000 O.3     1  UNL1       -0.2865
      7 C           6.0010    0.9827    0.0000 C.ar    1  UNL1        0.0768
      8 C           5.1350    0.4827    0.0000 C.ar    1  UNL1        0.0124
      9 C           7.7331    0.9827    0.0000 C.ar    1  UNL1        0.0738
     10 C           6.8671    0.4827    0.0000 C.ar    1  UNL1        0.2015
     11 C           7.7331    1.9827    0.0000 C.ar    1  UNL1        0.1516
     12 C           5.1350   -0.5173    0.0000 C.ar    1  UNL1        0.0406
     13 C           4.2690    0.9827    0.0000 C.ar    1  UNL1        0.0406
     14 C           6.0010    1.9827    0.0000 C.ar    1  UNL1        0.1826
     15 C           3.4030    0.4827    0.0000 C.ar    1  UNL1        0.1805
     16 C           4.2690   -1.0173    0.0000 C.ar    1  UNL1        0.1805
     17 C           3.4030   -0.5173    0.0000 C.ar    1  UNL1        0.2627
     18 C           8.6270    0.4480    0.0000 C.ar    1  UNL1        0.0095
     19 C           8.6270    2.5173    0.0000 C.ar    1  UNL1        0.0796
     20 C           9.5331    0.9619    0.0000 C.ar    1  UNL1        0.0423
     21 C           9.5331    2.0035    0.0000 C.ar    1  UNL1        0.1988
     22 C           2.5369    1.9827    0.0000 C.3     1  UNL1        0.2526
     23 C           5.1350   -2.5173    0.0000 C.3     1  UNL1        0.2526
@<TRIPOS>BOND
     1     1    11   ar
     2     1    14   ar
     3     2    15    1
     4     2    22    1
     5     3    16    1
     6     3    23    1
     7     4    10    2
     8     5    17    1
     9     6    21    1
    10     7     8    1
    11     7    10   ar
    12     7    14   ar
    13     8    12   ar
    14     8    13   ar
    15     9    10   ar
    16     9    11   ar
    17     9    18   ar
    18    11    19   ar
    19    12    16   ar
    20    13    15   ar
    21    15    17   ar
    22    16    17   ar
    23    18    20   ar
    24    19    21   ar
    25    20    21   ar
