@<TRIPOS>MOLECULE
IMPHY017855
 41 42 0 0 0
SMALL
GASTEIGER

@<TRIPOS>ATOM
      1 C           5.0000   -0.3716    0.0000 C.3     1  UNL1       -0.0199
      2 C           5.5878    0.4374    0.0000 C.3     1  UNL1       -0.0325
      3 C           5.5878   -1.1806    0.0000 C.3     1  UNL1       -0.0377
      4 C           6.5388    0.1284    0.0000 C.3     1  UNL1       -0.0492
      5 C           6.5388   -0.8716    0.0000 C.3     1  UNL1       -0.0497
      6 C           4.5000   -1.2376    0.0000 C.3     1  UNL1       -0.0429
      7 C           4.5000    0.4945    0.0000 C.3     1  UNL1       -0.0283
      8 C           5.2788    1.3885    0.0000 C.3     1  UNL1       -0.0434
      9 C           3.5000   -1.2376    0.0000 C.3     1  UNL1       -0.0315
     10 C           5.2788   -2.1316    0.0000 C.3     1  UNL1       -0.0619
     11 C           3.5000    0.4945    0.0000 C.2     1  UNL1       -0.0845
     12 C           3.0000   -0.3716    0.0000 C.2     1  UNL1       -0.0765
     13 C           5.9479    2.1316    0.0000 C.3     1  UNL1       -0.0624
     14 C           4.3006    1.5964    0.0000 C.3     1  UNL1       -0.0624
     15 C           2.0000   -0.3716    0.0000 C.3     1  UNL1       -0.0438
     16 H           6.0262    0.8759    0.0000 H       1  UNL1        0.0309
     17 H           6.0262   -1.6190    0.0000 H       1  UNL1        0.0304
     18 H           7.1554    0.0636    0.0000 H       1  UNL1        0.0268
     19 H           6.6678    0.7349    0.0000 H       1  UNL1        0.0268
     20 H           6.6678   -1.4780    0.0000 H       1  UNL1        0.0268
     21 H           7.1554   -0.8068    0.0000 H       1  UNL1        0.0268
     22 H           4.3923   -1.8482    0.0000 H       1  UNL1        0.0274
     23 H           5.0826   -1.4497    0.0000 H       1  UNL1        0.0274
     24 H           5.0826    0.7065    0.0000 H       1  UNL1        0.0313
     25 H           4.3923    1.1050    0.0000 H       1  UNL1        0.0313
     26 H           4.8639    0.9278    0.0000 H       1  UNL1        0.0298
     27 H           2.9174   -1.4497    0.0000 H       1  UNL1        0.0310
     28 H           3.6077   -1.8482    0.0000 H       1  UNL1        0.0310
     29 H           4.6891   -1.9401    0.0000 H       1  UNL1        0.0233
     30 H           5.0872   -2.7213    0.0000 H       1  UNL1        0.0233
     31 H           5.8684   -2.3232    0.0000 H       1  UNL1        0.0233
     32 H           3.1900    1.0314    0.0000 H       1  UNL1        0.0572
     33 H           6.4086    1.7168    0.0000 H       1  UNL1        0.0232
     34 H           6.3628    2.5924    0.0000 H       1  UNL1        0.0232
     35 H           5.4872    2.5465    0.0000 H       1  UNL1        0.0232
     36 H           4.4295    2.2029    0.0000 H       1  UNL1        0.0232
     37 H           3.6942    1.7253    0.0000 H       1  UNL1        0.0232
     38 H           4.1717    0.9900    0.0000 H       1  UNL1        0.0232
     39 H           2.0000    0.2484    0.0000 H       1  UNL1        0.0274
     40 H           1.3800   -0.3716    0.0000 H       1  UNL1        0.0274
     41 H           2.0000   -0.9916    0.0000 H       1  UNL1        0.0274
@<TRIPOS>BOND
     1     1     2    1
     2     1     3    1
     3     1     6    1
     4     1     7    1
     5     2     4    1
     6     2     8    1
     7     2    16    1
     8     3     5    1
     9     3    10    1
    10     3    17    1
    11     4     5    1
    12     4    18    1
    13     4    19    1
    14     5    20    1
    15     5    21    1
    16     6     9    1
    17     6    22    1
    18     6    23    1
    19     7    11    1
    20     7    24    1
    21     7    25    1
    22     8    13    1
    23     8    14    1
    24     8    26    1
    25     9    12    1
    26     9    27    1
    27     9    28    1
    28    10    29    1
    29    10    30    1
    30    10    31    1
    31    11    12    2
    32    11    32    1
    33    12    15    1
    34    13    33    1
    35    13    34    1
    36    13    35    1
    37    14    36    1
    38    14    37    1
    39    14    38    1
    40    15    39    1
    41    15    40    1
    42    15    41    1
