@<TRIPOS>MOLECULE
IMPHY006163
 27 27 0 0 0
SMALL
GASTEIGER

@<TRIPOS>ATOM
      1 O           5.2812   -1.4031    0.0000 O.2     1  UNL1       -0.2968
      2 C           5.0916    0.2797    0.0000 C.3     1  UNL1        0.0268
      3 C           4.6577    1.1806    0.0000 C.3     1  UNL1       -0.0226
      4 C           4.6577   -0.6213    0.0000 C.2     1  UNL1        0.1395
      5 C           3.6828   -0.8438    0.0000 C.3     1  UNL1        0.0100
      6 C           2.9010   -0.2203    0.0000 C.3     1  UNL1       -0.0253
      7 C           5.9926   -0.1542    0.0000 C.3     1  UNL1       -0.0528
      8 C           5.9926    0.7135    0.0000 C.3     1  UNL1       -0.0528
      9 C           3.6828    1.4031    0.0000 C.2     1  UNL1       -0.0841
     10 C           2.9010    0.7797    0.0000 C.2     1  UNL1       -0.0761
     11 C           2.0000    1.2135    0.0000 C.3     1  UNL1       -0.0438
     12 H           5.2622    1.3186    0.0000 H       1  UNL1        0.0317
     13 H           4.6577    1.8006    0.0000 H       1  UNL1        0.0317
     14 H           3.1981   -1.2304    0.0000 H       1  UNL1        0.0345
     15 H           3.9518   -1.4024    0.0000 H       1  UNL1        0.0345
     16 H           2.2965   -0.0824    0.0000 H       1  UNL1        0.0314
     17 H           2.6320   -0.7789    0.0000 H       1  UNL1        0.0314
     18 H           5.7236   -0.7128    0.0000 H       1  UNL1        0.0239
     19 H           6.5512   -0.4232    0.0000 H       1  UNL1        0.0239
     20 H           6.2616    0.4044    0.0000 H       1  UNL1        0.0239
     21 H           6.2616    0.1549    0.0000 H       1  UNL1        0.0239
     22 H           6.5512    0.9825    0.0000 H       1  UNL1        0.0239
     23 H           5.7236    1.2721    0.0000 H       1  UNL1        0.0239
     24 H           3.5448    2.0076    0.0000 H       1  UNL1        0.0572
     25 H           2.2690    1.7721    0.0000 H       1  UNL1        0.0274
     26 H           1.4414    1.4826    0.0000 H       1  UNL1        0.0274
     27 H           1.7310    0.6549    0.0000 H       1  UNL1        0.0274
@<TRIPOS>BOND
     1     1     4    2
     2     2     3    1
     3     2     4    1
     4     2     7    1
     5     2     8    1
     6     3     9    1
     7     3    12    1
     8     3    13    1
     9     4     5    1
    10     5     6    1
    11     5    14    1
    12     5    15    1
    13     6    10    1
    14     6    16    1
    15     6    17    1
    16     7    18    1
    17     7    19    1
    18     7    20    1
    19     8    21    1
    20     8    22    1
    21     8    23    1
    22     9    10    2
    23     9    24    1
    24    10    11    1
    25    11    25    1
    26    11    26    1
    27    11    27    1
