@<TRIPOS>MOLECULE
IMPHY001444
 11 11 0 0 0
SMALL
GASTEIGER

@<TRIPOS>ATOM
      1 S           3.3660   -1.6830    0.0000 S.3     1  UNL1       -0.1544
      2 N           2.0000    1.6830    0.0000 N.1     1  UNL1       -0.1965
      3 C           2.8660   -0.8170    0.0000 C.3     1  UNL1        0.0270
      4 C           3.8660   -0.8170    0.0000 C.3     1  UNL1        0.0068
      5 C           2.0000   -0.3170    0.0000 C.3     1  UNL1        0.0474
      6 C           2.0000    0.6830    0.0000 C.1     1  UNL1        0.0636
      7 H           2.2650   -1.4180    0.0000 H       1  UNL1        0.0430
      8 H           4.4486   -1.0290    0.0000 H       1  UNL1        0.0387
      9 H           3.9737   -0.2064    0.0000 H       1  UNL1        0.0387
     10 H           1.3894   -0.2093    0.0000 H       1  UNL1        0.0429
     11 H           1.7880   -0.8996    0.0000 H       1  UNL1        0.0429
@<TRIPOS>BOND
     1     1     3    1
     2     1     4    1
     3     2     6    3
     4     3     4    1
     5     3     5    1
     6     3     7    1
     7     4     8    1
     8     4     9    1
     9     5     6    1
    10     5    10    1
    11     5    11    1
