@<TRIPOS>MOLECULE
IMPHY004852
 27 29 0 0 0
SMALL
GASTEIGER

@<TRIPOS>ATOM
      1 O           8.1912   -1.3310    0.0000 O.3     1  UNL1       -0.3795
      2 O           2.5381    1.4484    0.0000 O.3     1  UNL1       -0.5068
      3 N           6.9343    0.9242    0.0000 N.pl3   1  UNL1       -0.2178
      4 N           6.0682   -0.5758    0.0000 N.2     1  UNL1       -0.0434
      5 C           7.8805    1.2290    0.0000 C.3     1  UNL1        0.0836
      6 C           8.4641    0.4242    0.0000 C.3     1  UNL1        0.0207
      7 C           7.8805   -0.3805    0.0000 C.3     1  UNL1        0.1607
      8 C           6.9343   -0.0758    0.0000 C.2     1  UNL1        0.3184
      9 C           6.0682    1.4242    0.0000 C.3     1  UNL1        0.1098
     10 C           5.2022    0.9242    0.0000 C.ar    1  UNL1        0.0459
     11 C           5.2022   -0.0758    0.0000 C.ar    1  UNL1        0.1831
     12 C           4.3083    1.4589    0.0000 C.ar    1  UNL1       -0.0093
     13 C           4.3083   -0.6104    0.0000 C.ar    1  UNL1       -0.0070
     14 C           3.4022    0.9450    0.0000 C.ar    1  UNL1        0.1175
     15 C           3.4022   -0.0966    0.0000 C.ar    1  UNL1       -0.0161
     16 H           8.4179    1.5382    0.0000 H       1  UNL1        0.0727
     17 H           7.6295    1.7959    0.0000 H       1  UNL1        0.0727
     18 H           8.9250    0.0095    0.0000 H       1  UNL1        0.0332
     19 H           8.9250    0.8390    0.0000 H       1  UNL1        0.0332
     20 H           8.4930   -0.4767    0.0000 H       1  UNL1        0.0721
     21 H           6.4668    1.8992    0.0000 H       1  UNL1        0.0779
     22 H           5.6697    1.8992    0.0000 H       1  UNL1        0.0779
     23 H           4.3154    2.0788    0.0000 H       1  UNL1        0.0659
     24 H           8.7978   -1.4589    0.0000 H       1  UNL1        0.2106
     25 H           4.3154   -1.2304    0.0000 H       1  UNL1        0.0662
     26 H           2.8665   -0.4087    0.0000 H       1  UNL1        0.0655
     27 H           2.0000    1.1404    0.0000 H       1  UNL1        0.2921
@<TRIPOS>BOND
     1     7     1    1
     2     1    24    1
     3     2    14    1
     4     2    27    1
     5     3     5    1
     6     3     8    1
     7     3     9    1
     8     4     8    2
     9     4    11    1
    10     5     6    1
    11     5    16    1
    12     5    17    1
    13     6     7    1
    14     6    18    1
    15     6    19    1
    16     7     8    1
    17     7    20    1
    18     9    10    1
    19     9    21    1
    20     9    22    1
    21    10    11   ar
    22    10    12   ar
    23    11    13   ar
    24    12    14   ar
    25    12    23    1
    26    13    15   ar
    27    13    25    1
    28    14    15   ar
    29    15    26    1
