@<TRIPOS>MOLECULE
IMPHY017026
 22 23 0 0 0
SMALL
GASTEIGER

@<TRIPOS>ATOM
      1 O           2.3890    1.0808    0.0000 O.3     1  UNL1       -0.3904
      2 C           5.7632    0.0638    0.0000 C.ar    1  UNL1       -0.0176
      3 C           5.7682   -0.9362    0.0000 C.ar    1  UNL1       -0.0179
      4 C           4.0044    0.4560    0.0000 C.ar    1  UNL1       -0.0216
      5 C           4.9782    0.6834    0.0000 C.ar    1  UNL1       -0.0487
      6 C           6.7079    0.3733    0.0000 C.ar    1  UNL1       -0.0540
      7 C           6.7159   -1.2362    0.0000 C.ar    1  UNL1       -0.0540
      8 C           4.9894   -1.5636    0.0000 C.ar    1  UNL1       -0.0540
      9 C           7.2955   -0.4286    0.0000 C.ar    1  UNL1       -0.0606
     10 C           3.5750   -0.4471    0.0000 C.ar    1  UNL1       -0.0564
     11 C           4.0134   -1.3459    0.0000 C.ar    1  UNL1       -0.0609
     12 C           3.3770    1.2347    0.0000 C.3     1  UNL1        0.0693
     13 H           5.1132    1.2885    0.0000 H       1  UNL1        0.0627
     14 H           6.8975    0.9635    0.0000 H       1  UNL1        0.0624
     15 H           6.9114   -1.8245    0.0000 H       1  UNL1        0.0624
     16 H           5.1304   -2.1673    0.0000 H       1  UNL1        0.0624
     17 H           2.9550   -0.4502    0.0000 H       1  UNL1        0.0621
     18 H           7.9155   -0.4255    0.0000 H       1  UNL1        0.0618
     19 H           3.6293   -1.8326    0.0000 H       1  UNL1        0.0618
     20 H           3.9201    1.5340    0.0000 H       1  UNL1        0.0607
     21 H           3.1767    1.8214    0.0000 H       1  UNL1        0.0607
     22 H           2.0000    1.5636    0.0000 H       1  UNL1        0.2098
@<TRIPOS>BOND
     1     1    12    1
     2     1    22    1
     3     2     3    1
     4     2     5   ar
     5     2     6   ar
     6     3     7   ar
     7     3     8   ar
     8     4     5   ar
     9     4    10   ar
    10     4    12    1
    11     5    13    1
    12     6     9   ar
    13     6    14    1
    14     7     9   ar
    15     7    15    1
    16     8    11   ar
    17     8    16    1
    18     9    18    1
    19    10    11   ar
    20    10    17    1
    21    11    19    1
    22    12    20    1
    23    12    21    1
