@<TRIPOS>MOLECULE
IMPHY005850
 32 33 0 0 0
SMALL
GASTEIGER

@<TRIPOS>ATOM
      1 O           4.5981    1.0000    0.0000 O.3     1  UNL1       -0.4570
      2 O           3.7320    2.5000    0.0000 O.2     1  UNL1       -0.2450
      3 C           2.8660   -2.0000    0.0000 C.ar    1  UNL1       -0.0252
      4 C           5.4641    2.5000    0.0000 C.ar    1  UNL1        0.0590
      5 C           3.7320    0.5000    0.0000 C.3     1  UNL1        0.1113
      6 C           2.8660   -1.0000    0.0000 C.2     1  UNL1       -0.0554
      7 C           3.7320   -0.5000    0.0000 C.2     1  UNL1       -0.0465
      8 C           2.0000   -2.5000    0.0000 C.ar    1  UNL1       -0.0546
      9 C           3.7320   -2.5000    0.0000 C.ar    1  UNL1       -0.0546
     10 C           6.3301    2.0000    0.0000 C.ar    1  UNL1       -0.0478
     11 C           5.4641    3.5000    0.0000 C.ar    1  UNL1       -0.0478
     12 C           4.5981    2.0000    0.0000 C.2     1  UNL1        0.3395
     13 C           2.0000   -3.5000    0.0000 C.ar    1  UNL1       -0.0612
     14 C           3.7320   -3.5000    0.0000 C.ar    1  UNL1       -0.0612
     15 C           2.8660   -4.0000    0.0000 C.ar    1  UNL1       -0.0617
     16 C           7.1962    2.5000    0.0000 C.ar    1  UNL1       -0.0610
     17 C           6.3301    4.0000    0.0000 C.ar    1  UNL1       -0.0610
     18 C           7.1962    3.5000    0.0000 C.ar    1  UNL1       -0.0617
     19 H           3.5200    1.0826    0.0000 H       1  UNL1        0.0743
     20 H           3.1215    0.3923    0.0000 H       1  UNL1        0.0743
     21 H           2.3291   -0.6900    0.0000 H       1  UNL1        0.0621
     22 H           4.2690   -0.8100    0.0000 H       1  UNL1        0.0606
     23 H           1.4631   -2.1900    0.0000 H       1  UNL1        0.0623
     24 H           4.2690   -2.1900    0.0000 H       1  UNL1        0.0623
     25 H           6.3301    1.3800    0.0000 H       1  UNL1        0.0626
     26 H           4.9272    3.8100    0.0000 H       1  UNL1        0.0626
     27 H           1.4631   -3.8100    0.0000 H       1  UNL1        0.0618
     28 H           4.2690   -3.8100    0.0000 H       1  UNL1        0.0618
     29 H           2.8660   -4.6200    0.0000 H       1  UNL1        0.0618
     30 H           7.7331    2.1900    0.0000 H       1  UNL1        0.0618
     31 H           6.3301    4.6200    0.0000 H       1  UNL1        0.0618
     32 H           7.7331    3.8100    0.0000 H       1  UNL1        0.0618
@<TRIPOS>BOND
     1     1     5    1
     2     1    12    1
     3     2    12    2
     4     3     6    1
     5     3     8   ar
     6     3     9   ar
     7     4    10   ar
     8     4    11   ar
     9     4    12    1
    10     5     7    1
    11     5    19    1
    12     5    20    1
    13     6     7    2
    14     6    21    1
    15     7    22    1
    16     8    13   ar
    17     8    23    1
    18     9    14   ar
    19     9    24    1
    20    10    16   ar
    21    10    25    1
    22    11    17   ar
    23    11    26    1
    24    13    15   ar
    25    13    27    1
    26    14    15   ar
    27    14    28    1
    28    15    29    1
    29    16    18   ar
    30    16    30    1
    31    17    18   ar
    32    17    31    1
    33    18    32    1
