@<TRIPOS>MOLECULE
IMPHY004341
 39 40 0 0 0
SMALL
GASTEIGER

@<TRIPOS>ATOM
      1 O          12.4725    0.3047    0.0000 O.3     1  UNL1       -0.4526
      2 O          12.4725   -1.3047    0.0000 O.3     1  UNL1       -0.4526
      3 O           5.4641    1.5000    0.0000 O.2     1  UNL1       -0.2708
      4 N           4.5981    0.0000    0.0000 N.am    1  UNL1       -0.3116
      5 C           2.8660    0.0000    0.0000 C.3     1  UNL1       -0.0311
      6 C           3.7320    0.5000    0.0000 C.3     1  UNL1        0.0142
      7 C           2.0000    0.5000    0.0000 C.3     1  UNL1       -0.0612
      8 C           2.8660   -1.0000    0.0000 C.3     1  UNL1       -0.0612
      9 C          11.5263    0.0000    0.0000 C.ar    1  UNL1        0.1668
     10 C          11.5263   -1.0000    0.0000 C.ar    1  UNL1        0.1663
     11 C           9.7942    0.0000    0.0000 C.ar    1  UNL1       -0.0213
     12 C          10.6603    0.5000    0.0000 C.ar    1  UNL1       -0.0090
     13 C           5.4641    0.5000    0.0000 C.2     1  UNL1        0.2369
     14 C          10.6603   -1.5000    0.0000 C.ar    1  UNL1       -0.0156
     15 C           9.7942   -1.0000    0.0000 C.ar    1  UNL1       -0.0509
     16 C          13.0561   -0.5000    0.0000 C.3     1  UNL1        0.2332
     17 C           8.9282    0.5000    0.0000 C.2     1  UNL1       -0.0545
     18 C           6.3301    0.0000    0.0000 C.2     1  UNL1        0.0001
     19 C           8.0622    0.0000    0.0000 C.2     1  UNL1       -0.0610
     20 C           7.1962    0.5000    0.0000 C.2     1  UNL1       -0.0568
     21 H           2.8660    0.6200    0.0000 H       1  UNL1        0.0311
     22 H           4.1306    0.9749    0.0000 H       1  UNL1        0.0465
     23 H           3.3335    0.9749    0.0000 H       1  UNL1        0.0465
     24 H           2.2460   -1.0000    0.0000 H       1  UNL1        0.0233
     25 H           2.8660   -1.6200    0.0000 H       1  UNL1        0.0233
     26 H           3.4860   -1.0000    0.0000 H       1  UNL1        0.0233
     27 H           2.3100    1.0369    0.0000 H       1  UNL1        0.0233
     28 H           1.4631    0.8100    0.0000 H       1  UNL1        0.0233
     29 H           1.6900   -0.0369    0.0000 H       1  UNL1        0.0233
     30 H           4.5981   -0.6200    0.0000 H       1  UNL1        0.1490
     31 H          10.6603    1.1200    0.0000 H       1  UNL1        0.0661
     32 H          10.6603   -2.1200    0.0000 H       1  UNL1        0.0655
     33 H           9.2573   -1.3100    0.0000 H       1  UNL1        0.0625
     34 H          13.5170   -0.9147    0.0000 H       1  UNL1        0.1166
     35 H          13.5170   -0.0853    0.0000 H       1  UNL1        0.1166
     36 H           8.9282    1.1200    0.0000 H       1  UNL1        0.0623
     37 H           6.3301   -0.6200    0.0000 H       1  UNL1        0.0669
     38 H           8.0622   -0.6200    0.0000 H       1  UNL1        0.0618
     39 H           7.1962    1.1200    0.0000 H       1  UNL1        0.0619
@<TRIPOS>BOND
     1     1     9    1
     2     1    16    1
     3     2    10    1
     4     2    16    1
     5     3    13    2
     6     4     6    1
     7     4    13   am
     8     4    30    1
     9     5     6    1
    10     5     7    1
    11     5     8    1
    12     5    21    1
    13     6    22    1
    14     6    23    1
    15     7    27    1
    16     7    28    1
    17     7    29    1
    18     8    24    1
    19     8    25    1
    20     8    26    1
    21     9    10   ar
    22     9    12   ar
    23    10    14   ar
    24    11    12   ar
    25    11    15   ar
    26    11    17    1
    27    12    31    1
    28    13    18    1
    29    14    15   ar
    30    14    32    1
    31    15    33    1
    32    16    34    1
    33    16    35    1
    34    17    19    2
    35    17    36    1
    36    18    20    2
    37    18    37    1
    38    19    20    1
    39    19    38    1
    40    20    39    1
