@<TRIPOS>MOLECULE
IMPHY004062
 56 58 0 0 0
SMALL
GASTEIGER

@<TRIPOS>ATOM
      1 F          12.0632   -0.9462    0.0000 F       1  UNL1       -0.2055
      2 O           3.4030    1.0538    0.0000 O.3     1  UNL1       -0.3851
      3 O           4.2690    2.5538    0.0000 O.2     1  UNL1       -0.2738
      4 O           2.5369   -2.4462    0.0000 O.3     1  UNL1       -0.5033
      5 O           4.2690   -3.4462    0.0000 O.3     1  UNL1       -0.5033
      6 N           6.0010    2.5538    0.0000 N.am    1  UNL1       -0.3001
      7 N           6.0010    0.5538    0.0000 N.3     1  UNL1       -0.3033
      8 C           6.9146    2.1470    0.0000 C.3     1  UNL1        0.0148
      9 C           6.1056    3.5483    0.0000 C.3     1  UNL1        0.0148
     10 C           7.0837    3.7562    0.0000 C.3     1  UNL1       -0.0357
     11 C           7.5837    2.8902    0.0000 C.3     1  UNL1       -0.0357
     12 C           5.1350    1.0538    0.0000 C.3     1  UNL1        0.1153
     13 C           5.1350    2.0538    0.0000 C.2     1  UNL1        0.2355
     14 C           4.2690    0.5538    0.0000 C.3     1  UNL1        0.1040
     15 C           6.8671    1.0538    0.0000 C.3     1  UNL1       -0.0030
     16 C           4.2690   -0.4462    0.0000 C.ar    1  UNL1       -0.0135
     17 C           7.7331    0.5538    0.0000 C.3     1  UNL1       -0.0364
     18 C           8.5991    1.0538    0.0000 C.3     1  UNL1       -0.0265
     19 C           3.4030   -0.9462    0.0000 C.ar    1  UNL1       -0.0108
     20 C           5.1350   -0.9462    0.0000 C.ar    1  UNL1       -0.0524
     21 C           9.4651    0.5538    0.0000 C.ar    1  UNL1       -0.0471
     22 C           3.4030   -1.9462    0.0000 C.ar    1  UNL1        0.1586
     23 C           5.1350   -1.9462    0.0000 C.ar    1  UNL1       -0.0162
     24 C           4.2690   -2.4462    0.0000 C.ar    1  UNL1        0.1582
     25 C           9.4651   -0.4462    0.0000 C.ar    1  UNL1       -0.0559
     26 C          10.3312    1.0538    0.0000 C.ar    1  UNL1       -0.0559
     27 C          10.3312   -0.9462    0.0000 C.ar    1  UNL1       -0.0262
     28 C          11.1972    0.5538    0.0000 C.ar    1  UNL1       -0.0262
     29 C          11.1972   -0.4462    0.0000 C.ar    1  UNL1        0.1234
     30 H           6.0408    4.1649    0.0000 H       1  UNL1        0.0464
     31 H           5.4856    3.5483    0.0000 H       1  UNL1        0.0464
     32 H           6.6046    1.6101    0.0000 H       1  UNL1        0.0464
     33 H           7.4162    1.7826    0.0000 H       1  UNL1        0.0464
     34 H           7.9986    2.4294    0.0000 H       1  UNL1        0.0281
     35 H           8.0853    3.2546    0.0000 H       1  UNL1        0.0281
     36 H           7.6501    4.0084    0.0000 H       1  UNL1        0.0281
     37 H           6.8921    4.3459    0.0000 H       1  UNL1        0.0281
     38 H           5.1350    0.4338    0.0000 H       1  UNL1        0.0586
     39 H           4.2690    1.1738    0.0000 H       1  UNL1        0.0664
     40 H           6.0010   -0.0662    0.0000 H       1  UNL1        0.1227
     41 H           7.2656    1.5287    0.0000 H       1  UNL1        0.0424
     42 H           6.4685    1.5287    0.0000 H       1  UNL1        0.0424
     43 H           7.3346    0.0788    0.0000 H       1  UNL1        0.0281
     44 H           8.1316    0.0788    0.0000 H       1  UNL1        0.0281
     45 H           8.9976    1.5287    0.0000 H       1  UNL1        0.0314
     46 H           8.2006    1.5287    0.0000 H       1  UNL1        0.0314
     47 H           3.4030    1.6738    0.0000 H       1  UNL1        0.2103
     48 H           2.8660   -0.6362    0.0000 H       1  UNL1        0.0659
     49 H           5.6720   -0.6362    0.0000 H       1  UNL1        0.0622
     50 H           5.6720   -2.2562    0.0000 H       1  UNL1        0.0655
     51 H           8.9282   -0.7562    0.0000 H       1  UNL1        0.0621
     52 H          10.3312    1.6738    0.0000 H       1  UNL1        0.0621
     53 H          10.3312   -1.5662    0.0000 H       1  UNL1        0.0646
     54 H          11.7341    0.8638    0.0000 H       1  UNL1        0.0646
     55 H           2.0000   -2.1362    0.0000 H       1  UNL1        0.2923
     56 H           4.8059   -3.7562    0.0000 H       1  UNL1        0.2923
@<TRIPOS>BOND
     1     1    29    1
     2    14     2    1
     3     2    47    1
     4     3    13    2
     5     4    22    1
     6     4    55    1
     7     5    24    1
     8     5    56    1
     9     6     8    1
    10     6     9    1
    11     6    13   am
    12    12     7    1
    13     7    15    1
    14     7    40    1
    15     8    11    1
    16     8    32    1
    17     8    33    1
    18     9    10    1
    19     9    30    1
    20     9    31    1
    21    10    11    1
    22    10    36    1
    23    10    37    1
    24    11    34    1
    25    11    35    1
    26    12    13    1
    27    12    14    1
    28    12    38    1
    29    14    16    1
    30    14    39    1
    31    15    17    1
    32    15    41    1
    33    15    42    1
    34    16    19   ar
    35    16    20   ar
    36    17    18    1
    37    17    43    1
    38    17    44    1
    39    18    21    1
    40    18    45    1
    41    18    46    1
    42    19    22   ar
    43    19    48    1
    44    20    23   ar
    45    20    49    1
    46    21    25   ar
    47    21    26   ar
    48    22    24   ar
    49    23    24   ar
    50    23    50    1
    51    25    27   ar
    52    25    51    1
    53    26    28   ar
    54    26    52    1
    55    27    29   ar
    56    27    53    1
    57    28    29   ar
    58    28    54    1
