@<TRIPOS>MOLECULE
IMPHY010576
 83 88 0 0 0
SMALL
GASTEIGER

@<TRIPOS>ATOM
      1 O           7.7662    1.7624    0.0000 O.3     1  UNL1       -0.3877
      2 O           6.0010   -3.4411    0.0000 O.3     1  UNL1       -0.3454
      3 O           4.3961   -0.8719    0.0000 O.2     1  UNL1       -0.3004
      4 O           4.1621    5.2761    0.0000 O.3     1  UNL1       -0.4571
      5 O           4.2690   -3.4411    0.0000 O.3     1  UNL1       -0.3431
      6 O           4.7972    6.9411    0.0000 O.2     1  UNL1       -0.2456
      7 O           6.0010   -5.4411    0.0000 O.3     1  UNL1       -0.3841
      8 O           4.2690   -6.4411    0.0000 O.3     1  UNL1       -0.3744
      9 O           2.5369   -5.4411    0.0000 O.3     1  UNL1       -0.3866
     10 C           6.8982    2.2591    0.0000 C.3     1  UNL1        0.0751
     11 C           6.9021    1.2591    0.0000 C.3     1  UNL1       -0.0079
     12 C           6.0303    2.7558    0.0000 C.3     1  UNL1        0.0036
     13 C           6.0380    0.7558    0.0000 C.3     1  UNL1       -0.0232
     14 C           6.0260   -0.2858    0.0000 C.3     1  UNL1        0.0321
     15 C           6.2358    3.7284    0.0000 C.3     1  UNL1       -0.0081
     16 C           5.1662    2.2524    0.0000 C.3     1  UNL1       -0.0442
     17 C           6.9260   -0.8101    0.0000 C.3     1  UNL1       -0.0263
     18 C           5.1701    1.2524    0.0000 C.3     1  UNL1       -0.0484
     19 C           7.6327    2.9290    0.0000 C.3     1  UNL1       -0.0226
     20 C           7.8140    0.7558    0.0000 C.3     1  UNL1       -0.0470
     21 C           7.2241    3.8352    0.0000 C.3     1  UNL1       -0.0432
     22 C           7.8261   -0.2858    0.0000 C.3     1  UNL1       -0.0489
     23 C           5.0761   -0.8101    0.0000 C.3     1  UNL1       -0.0381
     24 C           5.1624    3.2524    0.0000 C.3     1  UNL1       -0.0564
     25 C           6.9386   -1.8950    0.0000 C.3     1  UNL1       -0.0228
     26 C           5.0635   -1.8950    0.0000 C.3     1  UNL1       -0.0256
     27 C           6.0010   -2.4411    0.0000 C.3     1  UNL1        0.0621
     28 C           5.5650    4.4701    0.0000 C.2     1  UNL1       -0.0222
     29 C           5.0418   -0.1084    0.0000 C.2     1  UNL1        0.1270
     30 C           4.5708    4.3634    0.0000 C.3     1  UNL1        0.1147
     31 C           5.7709    5.4487    0.0000 C.2     1  UNL1        0.0252
     32 C           5.1350   -3.9411    0.0000 C.3     1  UNL1        0.1881
     33 C           4.9038    5.9468    0.0000 C.2     1  UNL1        0.3323
     34 C           5.1350   -4.9411    0.0000 C.3     1  UNL1        0.1344
     35 C           4.2690   -5.4411    0.0000 C.3     1  UNL1        0.1170
     36 C           3.4030   -3.9411    0.0000 C.3     1  UNL1        0.0873
     37 C           3.4030   -4.9411    0.0000 C.3     1  UNL1        0.1097
     38 C           2.5369   -3.4411    0.0000 C.3     1  UNL1       -0.0361
     39 C           3.4030   -6.9411    0.0000 C.3     1  UNL1        0.0370
     40 H           7.6333    1.6926    0.0000 H       1  UNL1        0.0332
     41 H           5.3002    0.3336    0.0000 H       1  UNL1        0.0314
     42 H           6.4565    4.3078    0.0000 H       1  UNL1        0.0353
     43 H           4.9519    2.8342    0.0000 H       1  UNL1        0.0272
     44 H           4.5560    2.1424    0.0000 H       1  UNL1        0.0272
     45 H           7.6654   -1.2294    0.0000 H       1  UNL1        0.0311
     46 H           4.5591    1.3577    0.0000 H       1  UNL1        0.0268
     47 H           4.9602    0.6690    0.0000 H       1  UNL1        0.0268
     48 H           8.0000    2.4296    0.0000 H       1  UNL1        0.0293
     49 H           8.1680    3.2418    0.0000 H       1  UNL1        0.0293
     50 H           8.4261    0.6567    0.0000 H       1  UNL1        0.0269
     51 H           8.0163    1.3418    0.0000 H       1  UNL1        0.0269
     52 H           7.8129    4.0293    0.0000 H       1  UNL1        0.0272
     53 H           7.0930    4.4412    0.0000 H       1  UNL1        0.0272
     54 H           8.0419   -0.8670    0.0000 H       1  UNL1        0.0268
     55 H           8.4357   -0.1727    0.0000 H       1  UNL1        0.0268
     56 H           4.8738   -0.2240    0.0000 H       1  UNL1        0.0276
     57 H           4.4640   -0.9091    0.0000 H       1  UNL1        0.0276
     58 H           5.4703    3.7905    0.0000 H       1  UNL1        0.0236
     59 H           4.6242    3.5603    0.0000 H       1  UNL1        0.0236
     60 H           4.8544    2.7143    0.0000 H       1  UNL1        0.0236
     61 H           7.1544   -2.4762    0.0000 H       1  UNL1        0.0293
     62 H           7.5482   -1.7819    0.0000 H       1  UNL1        0.0293
     63 H           4.4539   -1.7819    0.0000 H       1  UNL1        0.0290
     64 H           4.8477   -2.4762    0.0000 H       1  UNL1        0.0290
     65 H           6.5386   -2.7501    0.0000 H       1  UNL1        0.0597
     66 H           8.3019    2.0745    0.0000 H       1  UNL1        0.2102
     67 H           4.8320    0.4751    0.0000 H       1  UNL1        0.1032
     68 H           3.9815    4.1706    0.0000 H       1  UNL1        0.0746
     69 H           4.7009    3.7573    0.0000 H       1  UNL1        0.0746
     70 H           6.3367    5.7020    0.0000 H       1  UNL1        0.0689
     71 H           5.1350   -3.3211    0.0000 H       1  UNL1        0.0937
     72 H           5.1350   -5.5611    0.0000 H       1  UNL1        0.0671
     73 H           3.7320   -5.7511    0.0000 H       1  UNL1        0.0650
     74 H           3.4030   -3.3211    0.0000 H       1  UNL1        0.0621
     75 H           2.8660   -4.6311    0.0000 H       1  UNL1        0.0646
     76 H           6.0010   -6.0611    0.0000 H       1  UNL1        0.2101
     77 H           2.8469   -2.9042    0.0000 H       1  UNL1        0.0255
     78 H           2.0000   -3.1311    0.0000 H       1  UNL1        0.0255
     79 H           2.2269   -3.9781    0.0000 H       1  UNL1        0.0255
     80 H           2.0000   -5.1311    0.0000 H       1  UNL1        0.2100
     81 H           3.0930   -6.4042    0.0000 H       1  UNL1        0.0524
     82 H           2.8660   -7.2511    0.0000 H       1  UNL1        0.0524
     83 H           3.7130   -7.4781    0.0000 H       1  UNL1        0.0524
@<TRIPOS>BOND
     1    10     1    1
     2     1    66    1
     3    27     2    1
     4    32     2    1
     5     3    29    2
     6     4    30    1
     7     4    33    1
     8     5    32    1
     9     5    36    1
    10     6    33    2
    11    34     7    1
    12     7    76    1
    13    35     8    1
    14     8    39    1
    15    37     9    1
    16     9    80    1
    17    10    11    1
    18    10    12    1
    19    10    19    1
    20    11    13    1
    21    11    20    1
    22    11    40    1
    23    12    15    1
    24    12    16    1
    25    12    24    1
    26    13    14    1
    27    13    18    1
    28    13    41    1
    29    14    17    1
    30    14    23    1
    31    14    29    1
    32    15    21    1
    33    15    28    1
    34    15    42    1
    35    16    18    1
    36    16    43    1
    37    16    44    1
    38    17    22    1
    39    17    25    1
    40    17    45    1
    41    18    46    1
    42    18    47    1
    43    19    21    1
    44    19    48    1
    45    19    49    1
    46    20    22    1
    47    20    50    1
    48    20    51    1
    49    21    52    1
    50    21    53    1
    51    22    54    1
    52    22    55    1
    53    23    26    1
    54    23    56    1
    55    23    57    1
    56    24    58    1
    57    24    59    1
    58    24    60    1
    59    25    27    1
    60    25    61    1
    61    25    62    1
    62    26    27    1
    63    26    63    1
    64    26    64    1
    65    27    65    1
    66    28    30    1
    67    28    31    2
    68    29    67    1
    69    30    68    1
    70    30    69    1
    71    31    33    1
    72    31    70    1
    73    32    34    1
    74    32    71    1
    75    34    35    1
    76    34    72    1
    77    35    37    1
    78    35    73    1
    79    36    37    1
    80    36    38    1
    81    36    74    1
    82    37    75    1
    83    38    77    1
    84    38    78    1
    85    38    79    1
    86    39    81    1
    87    39    82    1
    88    39    83    1
