@<TRIPOS>MOLECULE
IMPHY010816
 48 50 0 0 0
SMALL
GASTEIGER

@<TRIPOS>ATOM
      1 O           6.8671    0.1550    0.0000 O.3     1  UNL1       -0.3096
      2 O           6.0010    1.6550    0.0000 O.2     1  UNL1       -0.4710
      3 O          10.2629    2.1550    0.0000 O.3     1  UNL1       -0.3914
      4 O           5.1350    0.1550    0.0000 O.3     1  UNL1       -0.3404
      5 O           9.9685    0.1935    0.0000 O.3     1  UNL1       -0.3946
      6 O           6.8671   -1.8450    0.0000 O.3     1  UNL1       -0.3841
      7 O           5.1350   -2.8450    0.0000 O.3     1  UNL1       -0.3864
      8 O           3.4030   -1.8450    0.0000 O.3     1  UNL1       -0.3865
      9 O           2.5369   -0.3450    0.0000 O.3     1  UNL1       -0.3924
     10 C           7.7331    1.6550    0.0000 C.3     1  UNL1        0.0353
     11 C           8.6793    1.3503    0.0000 C.3     1  UNL1        0.0172
     12 C           7.7331    2.6550    0.0000 C.3     1  UNL1       -0.0085
     13 C           9.2629    2.1550    0.0000 C.3     1  UNL1        0.0612
     14 C           8.6793    2.9597    0.0000 C.3     1  UNL1       -0.0197
     15 C           6.8671    1.1550    0.0000 C.3     1  UNL1        0.2072
     16 C           8.9900    0.3997    0.0000 C.3     1  UNL1        0.0498
     17 C           6.8671    3.1550    0.0000 C.2     1  UNL1       -0.0459
     18 C           6.0010   -0.3450    0.0000 C.3     1  UNL1        0.1918
     19 C           6.0010   -1.3450    0.0000 C.3     1  UNL1        0.1342
     20 C           6.0010    2.6550    0.0000 C.2     1  UNL1        0.0842
     21 C           5.1350   -1.8450    0.0000 C.3     1  UNL1        0.1141
     22 C           4.2690   -1.3450    0.0000 C.3     1  UNL1        0.1119
     23 C           4.2690   -0.3450    0.0000 C.3     1  UNL1        0.1130
     24 C           3.4030    0.1550    0.0000 C.3     1  UNL1        0.0730
     25 H           7.8230    0.8098    0.0000 H       1  UNL1        0.0371
     26 H           8.2418    0.9109    0.0000 H       1  UNL1        0.0353
     27 H           7.8230    3.5002    0.0000 H       1  UNL1        0.0350
     28 H           9.5446    1.6027    0.0000 H       1  UNL1        0.0597
     29 H           9.2167    3.2690    0.0000 H       1  UNL1        0.0296
     30 H           8.4283    3.5266    0.0000 H       1  UNL1        0.0296
     31 H           7.4040    0.8450    0.0000 H       1  UNL1        0.1059
     32 H           8.3762    0.3124    0.0000 H       1  UNL1        0.0561
     33 H           8.9694   -0.2199    0.0000 H       1  UNL1        0.0561
     34 H           6.8671    3.7750    0.0000 H       1  UNL1        0.0605
     35 H           6.0010    0.2750    0.0000 H       1  UNL1        0.0939
     36 H           6.0010   -1.9650    0.0000 H       1  UNL1        0.0671
     37 H           5.4641    2.9650    0.0000 H       1  UNL1        0.1021
     38 H           4.5981   -2.1550    0.0000 H       1  UNL1        0.0648
     39 H          10.5729    2.6919    0.0000 H       1  UNL1        0.2098
     40 H           3.7320   -1.0350    0.0000 H       1  UNL1        0.0647
     41 H           4.2690    0.2750    0.0000 H       1  UNL1        0.0647
     42 H          10.1611   -0.3958    0.0000 H       1  UNL1        0.2094
     43 H           3.8015    0.6299    0.0000 H       1  UNL1        0.0584
     44 H           3.0044    0.6299    0.0000 H       1  UNL1        0.0584
     45 H           6.8671   -2.4650    0.0000 H       1  UNL1        0.2101
     46 H           4.5981   -3.1550    0.0000 H       1  UNL1        0.2100
     47 H           3.4030   -2.4650    0.0000 H       1  UNL1        0.2100
     48 H           2.0000   -0.0350    0.0000 H       1  UNL1        0.2095
@<TRIPOS>BOND
     1    15     1    1
     2    18     1    1
     3     2    15    1
     4     2    20    1
     5    13     3    1
     6     3    39    1
     7     4    18    1
     8     4    23    1
     9     5    16    1
    10     5    42    1
    11    19     6    1
    12     6    45    1
    13    21     7    1
    14     7    46    1
    15    22     8    1
    16     8    47    1
    17     9    24    1
    18     9    48    1
    19    10    11    1
    20    10    12    1
    21    10    15    1
    22    10    25    1
    23    11    13    1
    24    11    16    1
    25    11    26    1
    26    12    14    1
    27    12    17    1
    28    12    27    1
    29    13    14    1
    30    13    28    1
    31    14    29    1
    32    14    30    1
    33    15    31    1
    34    16    32    1
    35    16    33    1
    36    17    20    2
    37    17    34    1
    38    18    19    1
    39    18    35    1
    40    19    21    1
    41    19    36    1
    42    20    37    1
    43    21    22    1
    44    21    38    1
    45    22    23    1
    46    22    40    1
    47    23    24    1
    48    23    41    1
    49    24    43    1
    50    24    44    1
