@<TRIPOS>MOLECULE
IMPHY001639
 45 47 0 0 0
SMALL
GASTEIGER

@<TRIPOS>ATOM
      1 O           4.5981    3.2872    0.0000 O.3     1  UNL1       -0.4907
      2 O           2.8660    2.2872    0.0000 O.3     1  UNL1       -0.4885
      3 O           2.8660    0.2872    0.0000 O.3     1  UNL1       -0.4913
      4 O           5.4747   -1.2373    0.0000 O.2     1  UNL1       -0.2850
      5 O           9.7872   -2.7873    0.0000 O.3     1  UNL1       -0.4951
      6 N           7.2641    0.7664    0.0000 N.ar    1  UNL1       -0.2511
      7 C           5.4641    0.7872    0.0000 C.ar    1  UNL1        0.0185
      8 C           5.4641    1.7872    0.0000 C.ar    1  UNL1        0.0313
      9 C           4.5981    2.2872    0.0000 C.ar    1  UNL1        0.1729
     10 C           6.3580    0.2526    0.0000 C.ar    1  UNL1        0.1188
     11 C           4.5981    0.2872    0.0000 C.ar    1  UNL1       -0.0062
     12 C           3.7320    1.7872    0.0000 C.ar    1  UNL1        0.2041
     13 C           3.7320    0.7872    0.0000 C.ar    1  UNL1        0.1658
     14 C           6.3580    2.3219    0.0000 C.ar    1  UNL1       -0.0322
     15 C           6.3465   -0.7474    0.0000 C.2     1  UNL1        0.2118
     16 C           7.2067   -1.2574    0.0000 C.ar    1  UNL1        0.0241
     17 C           7.2641    1.8080    0.0000 C.ar    1  UNL1        0.0291
     18 C           7.1951   -2.2573    0.0000 C.ar    1  UNL1       -0.0474
     19 C           8.0784   -0.7674    0.0000 C.ar    1  UNL1       -0.0474
     20 C           8.0553   -2.7673    0.0000 C.ar    1  UNL1       -0.0193
     21 C           8.9386   -1.2774    0.0000 C.ar    1  UNL1       -0.0193
     22 C           8.9270   -2.2773    0.0000 C.ar    1  UNL1        0.1201
     23 C           3.7320    3.7872    0.0000 C.3     1  UNL1        0.0790
     24 C           2.0000    1.7872    0.0000 C.3     1  UNL1        0.0791
     25 C           2.8660   -0.7128    0.0000 C.3     1  UNL1        0.0790
     26 C           9.7757   -3.7872    0.0000 C.3     1  UNL1        0.0788
     27 H           4.5981   -0.3328    0.0000 H       1  UNL1        0.0662
     28 H           6.3509    2.9418    0.0000 H       1  UNL1        0.0640
     29 H           7.7998    2.1201    0.0000 H       1  UNL1        0.0830
     30 H           6.6546   -2.5610    0.0000 H       1  UNL1        0.0626
     31 H           8.0856   -0.1474    0.0000 H       1  UNL1        0.0626
     32 H           8.0481   -3.3872    0.0000 H       1  UNL1        0.0654
     33 H           9.4791   -0.9736    0.0000 H       1  UNL1        0.0654
     34 H           4.0420    4.3242    0.0000 H       1  UNL1        0.0660
     35 H           3.1951    4.0972    0.0000 H       1  UNL1        0.0660
     36 H           3.4220    3.2503    0.0000 H       1  UNL1        0.0660
     37 H           1.6900    2.3242    0.0000 H       1  UNL1        0.0660
     38 H           1.4631    1.4772    0.0000 H       1  UNL1        0.0660
     39 H           2.3100    1.2503    0.0000 H       1  UNL1        0.0660
     40 H           2.2460   -0.7128    0.0000 H       1  UNL1        0.0660
     41 H           2.8660   -1.3328    0.0000 H       1  UNL1        0.0660
     42 H           3.4860   -0.7128    0.0000 H       1  UNL1        0.0660
     43 H           9.1557   -3.7801    0.0000 H       1  UNL1        0.0660
     44 H           9.7685   -4.4072    0.0000 H       1  UNL1        0.0660
     45 H          10.3956   -3.7944    0.0000 H       1  UNL1        0.0660
@<TRIPOS>BOND
     1     1     9    1
     2     1    23    1
     3     2    12    1
     4     2    24    1
     5     3    13    1
     6     3    25    1
     7     4    15    2
     8     5    22    1
     9     5    26    1
    10     6    10   ar
    11     6    17   ar
    12     7     8   ar
    13     7    10   ar
    14     7    11   ar
    15     8     9   ar
    16     8    14   ar
    17     9    12   ar
    18    10    15    1
    19    11    13   ar
    20    11    27    1
    21    12    13   ar
    22    14    17   ar
    23    14    28    1
    24    15    16    1
    25    16    18   ar
    26    16    19   ar
    27    17    29    1
    28    18    20   ar
    29    18    30    1
    30    19    21   ar
    31    19    31    1
    32    20    22   ar
    33    20    32    1
    34    21    22   ar
    35    21    33    1
    36    23    34    1
    37    23    35    1
    38    23    36    1
    39    24    37    1
    40    24    38    1
    41    24    39    1
    42    25    40    1
    43    25    41    1
    44    25    42    1
    45    26    43    1
    46    26    44    1
    47    26    45    1
