@<TRIPOS>MOLECULE
IMPHY010440
 102 114 0 0 0
SMALL
GASTEIGER

@<TRIPOS>ATOM
      1 O           6.2981   -1.0358    0.0000 O.3     1  UNL1       -0.3703
      2 O           6.3556    0.5477    0.0000 O.3     1  UNL1       -0.3753
      3 O           2.6039    0.8464    0.0000 O.3     1  UNL1       -0.4607
      4 O           3.6006    2.1569    0.0000 O.2     1  UNL1       -0.2508
      5 O           7.5385   -4.0293    0.0000 O.3     1  UNL1       -0.4932
      6 O           8.1907    3.9115    0.0000 O.3     1  UNL1       -0.4646
      7 O           9.9227    3.9248    0.0000 O.2     1  UNL1       -0.2453
      8 N           6.4260   -2.2133    0.0000 N.pl3   1  UNL1       -0.2976
      9 N           2.9061   -2.2133    0.0000 N.3     1  UNL1       -0.2976
     10 N           9.0641   -0.6511    0.0000 N.3     1  UNL1       -0.2969
     11 N          10.9591    2.2145    0.0000 N.pl3   1  UNL1       -0.3164
     12 C           4.6660   -2.1786    0.0000 C.3     1  UNL1        0.0607
     13 C           5.5321   -1.6786    0.0000 C.3     1  UNL1        0.1472
     14 C           3.8000   -1.6786    0.0000 C.3     1  UNL1        0.0338
     15 C           5.5321   -0.6786    0.0000 C.3     1  UNL1        0.0072
     16 C           3.8000   -0.6786    0.0000 C.3     1  UNL1        0.0347
     17 C           7.3321   -0.6578    0.0000 C.3     1  UNL1        0.0264
     18 C           8.1923    0.8455    0.0000 C.3     1  UNL1        0.0206
     19 C           4.6660   -0.1786    0.0000 C.3     1  UNL1       -0.0350
     20 C           6.4260   -0.1439    0.0000 C.3     1  UNL1       -0.0353
     21 C           7.3282    0.3422    0.0000 C.3     1  UNL1        0.0743
     22 C           9.0602    0.3489    0.0000 C.3     1  UNL1        0.0337
     23 C           7.3321   -1.6994    0.0000 C.3     1  UNL1        0.0241
     24 C           4.3009   -3.1029    0.0000 C.3     1  UNL1       -0.0248
     25 C           8.2000   -1.1544    0.0000 C.3     1  UNL1        0.0087
     26 C           2.9061   -0.1439    0.0000 C.3     1  UNL1        0.1118
     27 C           5.0312   -3.1029    0.0000 C.ar    1  UNL1       -0.0106
     28 C           9.9683    0.8592    0.0000 C.3     1  UNL1        0.0531
     29 C           3.3073   -3.1225    0.0000 C.3     1  UNL1        0.0002
     30 C           6.0248   -3.1225    0.0000 C.ar    1  UNL1        0.0780
     31 C           4.1326    0.3020    0.0000 C.3     1  UNL1        0.0554
     32 C           7.5224    1.5800    0.0000 C.3     1  UNL1       -0.0196
     33 C           8.1722    1.8870    0.0000 C.3     1  UNL1       -0.0098
     34 C           2.0000   -1.6994    0.0000 C.3     1  UNL1        0.0026
     35 C           2.0000   -0.6578    0.0000 C.3     1  UNL1       -0.0023
     36 C          10.5582    0.0594    0.0000 C.3     1  UNL1       -0.0238
     37 C          10.0477   -0.7933    0.0000 C.3     1  UNL1        0.0004
     38 C           9.9723    1.9008    0.0000 C.2     1  UNL1        0.0304
     39 C           6.4324    1.3537    0.0000 C.3     1  UNL1        0.0487
     40 C           9.0682    2.4182    0.0000 C.2     1  UNL1        0.0551
     41 C          10.9527    0.5380    0.0000 C.ar    1  UNL1       -0.0130
     42 C           3.3776    1.1820    0.0000 C.2     1  UNL1        0.3081
     43 C           4.4824   -3.9807    0.0000 C.ar    1  UNL1       -0.0559
     44 C           6.5385   -4.0212    0.0000 C.ar    1  UNL1        0.1414
     45 C          11.5638    1.3739    0.0000 C.ar    1  UNL1        0.0353
     46 C           4.9752   -4.8910    0.0000 C.ar    1  UNL1       -0.0579
     47 C           6.0102   -4.9114    0.0000 C.ar    1  UNL1       -0.0181
     48 C          11.3732   -0.4552    0.0000 C.ar    1  UNL1       -0.0559
     49 C           9.0605    3.4182    0.0000 C.2     1  UNL1        0.3364
     50 C          12.6378    1.2745    0.0000 C.ar    1  UNL1       -0.0403
     51 C          12.4446   -0.5794    0.0000 C.ar    1  UNL1       -0.0614
     52 C          13.0811    0.2913    0.0000 C.ar    1  UNL1       -0.0600
     53 C           8.0314   -4.8994    0.0000 C.3     1  UNL1        0.0789
     54 C           8.1830    4.9114    0.0000 C.3     1  UNL1        0.0820
     55 H           3.0639   -1.2536    0.0000 H       1  UNL1        0.0479
     56 H           5.5255    0.1714    0.0000 H       1  UNL1        0.0346
     57 H           5.0646    0.2963    0.0000 H       1  UNL1        0.0276
     58 H           4.2675    0.2963    0.0000 H       1  UNL1        0.0276
     59 H           6.8196    0.3351    0.0000 H       1  UNL1        0.0276
     60 H           6.0214    0.3258    0.0000 H       1  UNL1        0.0276
     61 H           6.6690   -0.1944    0.0000 H       1  UNL1        0.0608
     62 H           9.0570    1.1989    0.0000 H       1  UNL1        0.0481
     63 H           7.5411   -2.2831    0.0000 H       1  UNL1        0.0471
     64 H           7.9429   -1.5933    0.0000 H       1  UNL1        0.0471
     65 H           4.2315   -3.7190    0.0000 H       1  UNL1        0.0288
     66 H           4.9025   -3.2528    0.0000 H       1  UNL1        0.0288
     67 H           7.8033   -1.6309    0.0000 H       1  UNL1        0.0433
     68 H           8.6004   -1.6279    0.0000 H       1  UNL1        0.0433
     69 H           2.1165    0.1708    0.0000 H       1  UNL1        0.0740
     70 H           2.7121   -3.2960    0.0000 H       1  UNL1        0.0427
     71 H           3.4010   -3.7354    0.0000 H       1  UNL1        0.0427
     72 H           4.6751    0.0019    0.0000 H       1  UNL1        0.0385
     73 H           4.5241    0.7827    0.0000 H       1  UNL1        0.0385
     74 H           8.0473    1.9100    0.0000 H       1  UNL1        0.0294
     75 H           7.2907    2.1551    0.0000 H       1  UNL1        0.0294
     76 H           7.9520    2.4665    0.0000 H       1  UNL1        0.0323
     77 H           7.5635    1.7691    0.0000 H       1  UNL1        0.0323
     78 H           1.3891   -1.5933    0.0000 H       1  UNL1        0.0428
     79 H           1.7909   -2.2831    0.0000 H       1  UNL1        0.0428
     80 H           1.7909   -0.0741    0.0000 H       1  UNL1        0.0313
     81 H           1.3891   -0.7639    0.0000 H       1  UNL1        0.0313
     82 H          11.0436   -0.3263    0.0000 H       1  UNL1        0.0290
     83 H          11.0044    0.4899    0.0000 H       1  UNL1        0.0290
     84 H           9.8790   -1.3899    0.0000 H       1  UNL1        0.0427
     85 H          10.6169   -1.0390    0.0000 H       1  UNL1        0.0427
     86 H           6.8807   -1.2479    0.0000 H       1  UNL1        0.2121
     87 H           6.3676    1.9703    0.0000 H       1  UNL1        0.0560
     88 H           5.8125    1.3506    0.0000 H       1  UNL1        0.0560
     89 H           3.8627   -3.9613    0.0000 H       1  UNL1        0.0621
     90 H          11.1540    2.8030    0.0000 H       1  UNL1        0.1519
     91 H           4.6527   -5.4205    0.0000 H       1  UNL1        0.0619
     92 H           6.3117   -5.4532    0.0000 H       1  UNL1        0.0655
     93 H          11.0015   -0.9515    0.0000 H       1  UNL1        0.0621
     94 H          12.9979    1.7792    0.0000 H       1  UNL1        0.0636
     95 H          12.6928   -1.1475    0.0000 H       1  UNL1        0.0618
     96 H          13.6978    0.2270    0.0000 H       1  UNL1        0.0618
     97 H           7.4920   -5.2050    0.0000 H       1  UNL1        0.0660
     98 H           8.3371   -5.4388    0.0000 H       1  UNL1        0.0660
     99 H           8.5709   -4.5938    0.0000 H       1  UNL1        0.0660
    100 H           8.8029    4.9162    0.0000 H       1  UNL1        0.0661
    101 H           8.1782    5.5314    0.0000 H       1  UNL1        0.0661
    102 H           7.5630    4.9067    0.0000 H       1  UNL1        0.0661
@<TRIPOS>BOND
     1    13     1    1
     2     1    86    1
     3     2    21    1
     4     2    39    1
     5     3    26    1
     6     3    42    1
     7     4    42    2
     8     5    44    1
     9     5    53    1
    10     6    49    1
    11     6    54    1
    12     7    49    2
    13     8    13    1
    14     8    23    1
    15     8    30    1
    16     9    14    1
    17     9    29    1
    18     9    34    1
    19    10    22    1
    20    10    25    1
    21    10    37    1
    22    11    38    1
    23    11    45    1
    24    11    90    1
    25    12    13    1
    26    12    14    1
    27    12    24    1
    28    12    27    1
    29    13    15    1
    30    14    16    1
    31    14    55    1
    32    15    19    1
    33    15    20    1
    34    15    56    1
    35    16    19    1
    36    16    26    1
    37    16    31    1
    38    17    20    1
    39    17    21    1
    40    17    23    1
    41    17    25    1
    42    18    21    1
    43    18    22    1
    44    18    32    1
    45    18    33    1
    46    19    57    1
    47    19    58    1
    48    20    59    1
    49    20    60    1
    50    21    61    1
    51    22    28    1
    52    22    62    1
    53    23    63    1
    54    23    64    1
    55    24    29    1
    56    24    65    1
    57    24    66    1
    58    25    67    1
    59    25    68    1
    60    26    35    1
    61    26    69    1
    62    27    30   ar
    63    27    43   ar
    64    28    36    1
    65    28    38    1
    66    28    41    1
    67    29    70    1
    68    29    71    1
    69    30    44   ar
    70    31    42    1
    71    31    72    1
    72    31    73    1
    73    32    39    1
    74    32    74    1
    75    32    75    1
    76    33    40    1
    77    33    76    1
    78    33    77    1
    79    34    35    1
    80    34    78    1
    81    34    79    1
    82    35    80    1
    83    35    81    1
    84    36    37    1
    85    36    82    1
    86    36    83    1
    87    37    84    1
    88    37    85    1
    89    38    40    2
    90    39    87    1
    91    39    88    1
    92    40    49    1
    93    41    45   ar
    94    41    48   ar
    95    43    46   ar
    96    43    89    1
    97    44    47   ar
    98    45    50   ar
    99    46    47   ar
   100    46    91    1
   101    47    92    1
   102    48    51   ar
   103    48    93    1
   104    50    52   ar
   105    50    94    1
   106    51    52   ar
   107    51    95    1
   108    52    96    1
   109    53    97    1
   110    53    98    1
   111    53    99    1
   112    54   100    1
   113    54   101    1
   114    54   102    1
