@<TRIPOS>MOLECULE
IMPHY017729
 26 26 0 0 0
SMALL
GASTEIGER

@<TRIPOS>ATOM
      1 O           4.5981    1.7500    0.0000 O.3     1  UNL1       -0.4507
      2 O           2.8660    1.7500    0.0000 O.2     1  UNL1       -0.2265
      3 N           3.7320    0.2500    0.0000 N.am    1  UNL1       -0.2770
      4 C           2.8660   -0.2500    0.0000 C.3     1  UNL1        0.0400
      5 C           2.8660   -1.2500    0.0000 C.ar    1  UNL1       -0.0302
      6 C           2.0000   -1.7500    0.0000 C.ar    1  UNL1       -0.0571
      7 C           3.7320   -1.7500    0.0000 C.ar    1  UNL1       -0.0571
      8 C           2.0000   -2.7500    0.0000 C.ar    1  UNL1       -0.0615
      9 C           3.7320   -2.7500    0.0000 C.ar    1  UNL1       -0.0615
     10 C           2.8660   -3.2500    0.0000 C.ar    1  UNL1       -0.0617
     11 C           3.7320    1.2500    0.0000 C.2     1  UNL1        0.4005
     12 C           4.5981    2.7500    0.0000 C.3     1  UNL1        0.0912
     13 C           5.4641    3.2500    0.0000 C.3     1  UNL1       -0.0305
     14 H           2.6540    0.3326    0.0000 H       1  UNL1        0.0513
     15 H           2.2554   -0.3577    0.0000 H       1  UNL1        0.0513
     16 H           1.4631   -1.4400    0.0000 H       1  UNL1        0.0621
     17 H           4.2690   -1.4400    0.0000 H       1  UNL1        0.0621
     18 H           4.2690   -0.0600    0.0000 H       1  UNL1        0.1523
     19 H           1.4631   -3.0600    0.0000 H       1  UNL1        0.0618
     20 H           4.2690   -3.0600    0.0000 H       1  UNL1        0.0618
     21 H           2.8660   -3.8700    0.0000 H       1  UNL1        0.0618
     22 H           4.3860    3.3326    0.0000 H       1  UNL1        0.0695
     23 H           3.9875    2.6423    0.0000 H       1  UNL1        0.0695
     24 H           5.7741    2.7131    0.0000 H       1  UNL1        0.0262
     25 H           6.0010    3.5600    0.0000 H       1  UNL1        0.0262
     26 H           5.1541    3.7869    0.0000 H       1  UNL1        0.0262
@<TRIPOS>BOND
     1     1    11    1
     2     1    12    1
     3     2    11    2
     4     3     4    1
     5     3    11   am
     6     3    18    1
     7     4     5    1
     8     4    14    1
     9     4    15    1
    10     5     6   ar
    11     5     7   ar
    12     6     8   ar
    13     6    16    1
    14     7     9   ar
    15     7    17    1
    16     8    10   ar
    17     8    19    1
    18     9    10   ar
    19     9    20    1
    20    10    21    1
    21    12    13    1
    22    12    22    1
    23    12    23    1
    24    13    24    1
    25    13    25    1
    26    13    26    1
