@<TRIPOS>MOLECULE
IMPHY005136
 50 52 0 0 0
SMALL
GASTEIGER

@<TRIPOS>ATOM
      1 O           8.6603   -2.2056    0.0000 O.3     1  UNL1       -0.4914
      2 O           6.7355   -2.9061    0.0000 O.3     1  UNL1       -0.4914
      3 O           3.3321   -1.6674    0.0000 O.3     1  UNL1       -0.4914
      4 O           2.3079    0.1065    0.0000 O.3     1  UNL1       -0.5033
      5 N           6.8169    2.6122    0.0000 N.3     1  UNL1       -0.3047
      6 C           7.5829    1.9694    0.0000 C.3     1  UNL1        0.0026
      7 C           5.8169    2.6122    0.0000 C.3     1  UNL1        0.0026
      8 C           7.7566    0.9846    0.0000 C.3     1  UNL1       -0.0142
      9 C           5.0508    1.9694    0.0000 C.3     1  UNL1       -0.0142
     10 C           7.2566    0.1186    0.0000 C.ar    1  UNL1       -0.0348
     11 C           4.8772    0.9846    0.0000 C.ar    1  UNL1       -0.0348
     12 C           6.3169   -0.2234    0.0000 C.ar    1  UNL1       -0.0106
     13 C           5.3772    0.1186    0.0000 C.ar    1  UNL1       -0.0106
     14 C           8.0647   -0.5386    0.0000 C.ar    1  UNL1       -0.0125
     15 C           6.1202   -1.2463    0.0000 C.ar    1  UNL1       -0.0083
     16 C           7.1589    3.5519    0.0000 C.3     1  UNL1       -0.0127
     17 C           3.8357    1.0007    0.0000 C.ar    1  UNL1       -0.0127
     18 C           4.8703   -0.7914    0.0000 C.ar    1  UNL1       -0.0083
     19 C           7.8918   -1.5658    0.0000 C.ar    1  UNL1        0.1618
     20 C           6.9130   -1.9220    0.0000 C.ar    1  UNL1        0.1621
     21 C           3.8287   -0.7995    0.0000 C.ar    1  UNL1        0.1619
     22 C           3.3079    0.1026    0.0000 C.ar    1  UNL1        0.1587
     23 C           9.5986   -1.8600    0.0000 C.3     1  UNL1        0.0790
     24 C           7.4991   -3.5519    0.0000 C.3     1  UNL1        0.0790
     25 C           2.3321   -1.6713    0.0000 C.3     1  UNL1        0.0790
     26 H           8.1987    1.8974    0.0000 H       1  UNL1        0.0430
     27 H           7.8285    2.5387    0.0000 H       1  UNL1        0.0430
     28 H           5.9947    3.2062    0.0000 H       1  UNL1        0.0430
     29 H           5.2989    2.9529    0.0000 H       1  UNL1        0.0430
     30 H           8.1820    0.5336    0.0000 H       1  UNL1        0.0326
     31 H           8.3106    1.2628    0.0000 H       1  UNL1        0.0326
     32 H           4.8053    2.5387    0.0000 H       1  UNL1        0.0326
     33 H           4.4350    1.8974    0.0000 H       1  UNL1        0.0326
     34 H           8.6448   -0.3198    0.0000 H       1  UNL1        0.0658
     35 H           5.5352   -1.4516    0.0000 H       1  UNL1        0.0661
     36 H           7.7415    3.3398    0.0000 H       1  UNL1        0.0391
     37 H           7.3710    4.1345    0.0000 H       1  UNL1        0.0391
     38 H           6.5763    3.7639    0.0000 H       1  UNL1        0.0391
     39 H           3.5319    1.5411    0.0000 H       1  UNL1        0.0658
     40 H           5.1865   -1.3247    0.0000 H       1  UNL1        0.0661
     41 H           2.0000    0.6446    0.0000 H       1  UNL1        0.2923
     42 H           9.8130   -2.4417    0.0000 H       1  UNL1        0.0660
     43 H          10.1804   -1.6457    0.0000 H       1  UNL1        0.0660
     44 H           9.3844   -1.2782    0.0000 H       1  UNL1        0.0660
     45 H           7.0987   -4.0253    0.0000 H       1  UNL1        0.0660
     46 H           7.9725   -3.9522    0.0000 H       1  UNL1        0.0660
     47 H           7.8994   -3.0785    0.0000 H       1  UNL1        0.0660
     48 H           2.3297   -1.0513    0.0000 H       1  UNL1        0.0660
     49 H           1.7121   -1.6736    0.0000 H       1  UNL1        0.0660
     50 H           2.3345   -2.2912    0.0000 H       1  UNL1        0.0660
@<TRIPOS>BOND
     1     1    19    1
     2     1    23    1
     3     2    20    1
     4     2    24    1
     5     3    21    1
     6     3    25    1
     7     4    22    1
     8     4    41    1
     9     5     6    1
    10     5     7    1
    11     5    16    1
    12     6     8    1
    13     6    26    1
    14     6    27    1
    15     7     9    1
    16     7    28    1
    17     7    29    1
    18     8    10    1
    19     8    30    1
    20     8    31    1
    21     9    11    1
    22     9    32    1
    23     9    33    1
    24    10    12   ar
    25    10    14   ar
    26    11    13   ar
    27    11    17   ar
    28    12    13    1
    29    12    15   ar
    30    13    18   ar
    31    14    19   ar
    32    14    34    1
    33    15    20   ar
    34    15    35    1
    35    16    36    1
    36    16    37    1
    37    16    38    1
    38    17    22   ar
    39    17    39    1
    40    18    21   ar
    41    18    40    1
    42    19    20   ar
    43    21    22   ar
    44    23    42    1
    45    23    43    1
    46    23    44    1
    47    24    45    1
    48    24    46    1
    49    24    47    1
    50    25    48    1
    51    25    49    1
    52    25    50    1
