@<TRIPOS>MOLECULE
IMPHY007238
 56 58 0 0 0
SMALL
GASTEIGER

@<TRIPOS>ATOM
      1 C           3.8000   -0.3193    0.0000 C.3     1  UNL1       -0.0257
      2 C           4.6660    0.1807    0.0000 C.3     1  UNL1       -0.0325
      3 C           3.8000   -1.3193    0.0000 C.3     1  UNL1       -0.0302
      4 C           5.5321   -0.3193    0.0000 C.3     1  UNL1       -0.0374
      5 C           2.9061   -1.8540    0.0000 C.3     1  UNL1       -0.0315
      6 C           4.6660   -1.8193    0.0000 C.3     1  UNL1       -0.0490
      7 C           2.9061    0.2153    0.0000 C.3     1  UNL1       -0.0471
      8 C           5.5321   -1.3193    0.0000 C.3     1  UNL1       -0.0496
      9 C           4.6500    1.2222    0.0000 C.3     1  UNL1       -0.0492
     10 C           6.4421    0.1875    0.0000 C.3     1  UNL1       -0.0469
     11 C           2.0000   -1.3402    0.0000 C.3     1  UNL1       -0.0476
     12 C           6.4501    1.2291    0.0000 C.3     1  UNL1       -0.0384
     13 C           2.0000   -0.2985    0.0000 C.3     1  UNL1       -0.0521
     14 C           3.8000    0.6807    0.0000 C.3     1  UNL1       -0.0590
     15 C           5.5480    1.7499    0.0000 C.3     1  UNL1       -0.0497
     16 C           2.4161   -2.7258    0.0000 C.3     1  UNL1       -0.0595
     17 C           3.4160   -2.7142    0.0000 C.3     1  UNL1       -0.0595
     18 C           7.3180    1.7258    0.0000 C.3     1  UNL1       -0.0439
     19 C           7.3219    2.7258    0.0000 C.3     1  UNL1       -0.0624
     20 C           8.1821    1.2224    0.0000 C.3     1  UNL1       -0.0624
     21 H           5.3989    0.6113    0.0000 H       1  UNL1        0.0309
     22 H           3.8066   -2.1693    0.0000 H       1  UNL1        0.0311
     23 H           6.2649   -0.7500    0.0000 H       1  UNL1        0.0304
     24 H           4.2675   -2.2943    0.0000 H       1  UNL1        0.0268
     25 H           5.0646   -2.2943    0.0000 H       1  UNL1        0.0268
     26 H           3.3107    0.6851    0.0000 H       1  UNL1        0.0271
     27 H           2.5124    0.6943    0.0000 H       1  UNL1        0.0271
     28 H           5.7441   -1.9020    0.0000 H       1  UNL1        0.0268
     29 H           6.1426   -1.2117    0.0000 H       1  UNL1        0.0268
     30 H           4.4319    1.8026    0.0000 H       1  UNL1        0.0268
     31 H           4.0408    1.1067    0.0000 H       1  UNL1        0.0268
     32 H           6.6466   -0.3978    0.0000 H       1  UNL1        0.0271
     33 H           7.0537    0.2889    0.0000 H       1  UNL1        0.0271
     34 H           1.3891   -1.2341    0.0000 H       1  UNL1        0.0271
     35 H           1.7909   -1.9238    0.0000 H       1  UNL1        0.0271
     36 H           6.9852    0.9160    0.0000 H       1  UNL1        0.0303
     37 H           1.7909    0.2852    0.0000 H       1  UNL1        0.0266
     38 H           1.3891   -0.4046    0.0000 H       1  UNL1        0.0266
     39 H           4.4200    0.6807    0.0000 H       1  UNL1        0.0235
     40 H           3.8000    1.3007    0.0000 H       1  UNL1        0.0235
     41 H           3.1800    0.6807    0.0000 H       1  UNL1        0.0235
     42 H           5.9453    2.2259    0.0000 H       1  UNL1        0.0268
     43 H           5.1470    2.2228    0.0000 H       1  UNL1        0.0268
     44 H           1.8756   -2.4220    0.0000 H       1  UNL1        0.0235
     45 H           2.1123   -3.2662    0.0000 H       1  UNL1        0.0235
     46 H           2.9566   -3.0295    0.0000 H       1  UNL1        0.0235
     47 H           2.8827   -3.0304    0.0000 H       1  UNL1        0.0235
     48 H           3.7322   -3.2475    0.0000 H       1  UNL1        0.0235
     49 H           3.9494   -2.3980    0.0000 H       1  UNL1        0.0235
     50 H           7.8562    2.0337    0.0000 H       1  UNL1        0.0298
     51 H           7.9419    2.7234    0.0000 H       1  UNL1        0.0232
     52 H           7.3243    3.3458    0.0000 H       1  UNL1        0.0232
     53 H           6.7019    2.7281    0.0000 H       1  UNL1        0.0232
     54 H           7.8701    0.6867    0.0000 H       1  UNL1        0.0232
     55 H           8.7179    0.9104    0.0000 H       1  UNL1        0.0232
     56 H           8.4942    1.7582    0.0000 H       1  UNL1        0.0232
@<TRIPOS>BOND
     1     1     2    1
     2     1     3    1
     3     1     7    1
     4     1    14    1
     5     2     4    1
     6     2     9    1
     7     2    21    1
     8     3     5    1
     9     3     6    1
    10     3    22    1
    11     4     8    1
    12     4    10    1
    13     4    23    1
    14     5    11    1
    15     5    16    1
    16     5    17    1
    17     6     8    1
    18     6    24    1
    19     6    25    1
    20     7    13    1
    21     7    26    1
    22     7    27    1
    23     8    28    1
    24     8    29    1
    25     9    15    1
    26     9    30    1
    27     9    31    1
    28    10    12    1
    29    10    32    1
    30    10    33    1
    31    11    13    1
    32    11    34    1
    33    11    35    1
    34    12    15    1
    35    12    18    1
    36    12    36    1
    37    13    37    1
    38    13    38    1
    39    14    39    1
    40    14    40    1
    41    14    41    1
    42    15    42    1
    43    15    43    1
    44    16    44    1
    45    16    45    1
    46    16    46    1
    47    17    47    1
    48    17    48    1
    49    17    49    1
    50    18    19    1
    51    18    20    1
    52    18    50    1
    53    19    51    1
    54    19    52    1
    55    19    53    1
    56    20    54    1
    57    20    55    1
    58    20    56    1
