@<TRIPOS>MOLECULE
IMPHY013604
 57 60 0 0 0
SMALL
GASTEIGER

@<TRIPOS>ATOM
      1 O           2.8641   -0.9810    0.0000 O.3     1  UNL1       -0.3827
      2 O           3.7359   -3.5326    0.0000 O.3     1  UNL1       -0.3827
      3 O           9.0744   -0.7037    0.0000 O.3     1  UNL1       -0.4526
      4 O           9.0744   -2.3132    0.0000 O.3     1  UNL1       -0.4526
      5 O           7.2688    2.5060    0.0000 O.3     1  UNL1       -0.4914
      6 O           5.5484    3.5259    0.0000 O.3     1  UNL1       -0.4915
      7 C           4.5961   -0.9876    0.0000 C.3     1  UNL1       -0.0016
      8 C           4.5961   -2.0293    0.0000 C.3     1  UNL1       -0.0078
      9 C           5.5022   -0.4738    0.0000 C.3     1  UNL1        0.0150
     10 C           5.5022   -2.5431    0.0000 C.3     1  UNL1       -0.0220
     11 C           6.3961   -1.0084    0.0000 C.ar    1  UNL1       -0.0328
     12 C           6.3961   -2.0084    0.0000 C.ar    1  UNL1       -0.0396
     13 C           3.7320   -0.4843    0.0000 C.3     1  UNL1        0.0513
     14 C           3.7320   -2.5326    0.0000 C.3     1  UNL1        0.0508
     15 C           5.5138    0.5261    0.0000 C.ar    1  UNL1       -0.0359
     16 C           7.2622   -0.5084    0.0000 C.ar    1  UNL1       -0.0121
     17 C           7.2622   -2.5084    0.0000 C.ar    1  UNL1       -0.0127
     18 C           8.1282   -1.0084    0.0000 C.ar    1  UNL1        0.1665
     19 C           8.1282   -2.0084    0.0000 C.ar    1  UNL1        0.1665
     20 C           6.3855    1.0161    0.0000 C.ar    1  UNL1       -0.0125
     21 C           4.6536    1.0361    0.0000 C.ar    1  UNL1       -0.0543
     22 C           6.3971    2.0160    0.0000 C.ar    1  UNL1        0.1618
     23 C           4.6651    2.0361    0.0000 C.ar    1  UNL1       -0.0160
     24 C           9.6580   -1.5084    0.0000 C.3     1  UNL1        0.2332
     25 C           5.5369    2.5260    0.0000 C.ar    1  UNL1        0.1615
     26 C           2.0000   -0.4776    0.0000 C.3     1  UNL1        0.0365
     27 C           2.8718   -4.0359    0.0000 C.3     1  UNL1        0.0365
     28 C           7.2804    3.5059    0.0000 C.3     1  UNL1        0.0790
     29 C           4.6883    4.0359    0.0000 C.3     1  UNL1        0.0790
     30 H           4.5997   -0.3676    0.0000 H       1  UNL1        0.0335
     31 H           4.0586   -1.7203    0.0000 H       1  UNL1        0.0330
     32 H           4.9683   -0.1586    0.0000 H       1  UNL1        0.0401
     33 H           5.1086   -3.0221    0.0000 H       1  UNL1        0.0317
     34 H           5.9068   -3.0129    0.0000 H       1  UNL1        0.0317
     35 H           4.1324   -0.0109    0.0000 H       1  UNL1        0.0563
     36 H           3.3353   -0.0078    0.0000 H       1  UNL1        0.0563
     37 H           3.5177   -1.9508    0.0000 H       1  UNL1        0.0562
     38 H           3.1219   -2.6426    0.0000 H       1  UNL1        0.0562
     39 H           7.2622    0.1116    0.0000 H       1  UNL1        0.0658
     40 H           7.2622   -3.1284    0.0000 H       1  UNL1        0.0658
     41 H           6.9188    0.6999    0.0000 H       1  UNL1        0.0658
     42 H           4.1131    0.7324    0.0000 H       1  UNL1        0.0622
     43 H           4.1318    2.3522    0.0000 H       1  UNL1        0.0655
     44 H          10.1189   -1.9232    0.0000 H       1  UNL1        0.1166
     45 H          10.1189   -1.0937    0.0000 H       1  UNL1        0.1166
     46 H           2.3121    0.0581    0.0000 H       1  UNL1        0.0523
     47 H           1.4643   -0.1656    0.0000 H       1  UNL1        0.0523
     48 H           1.6879   -1.0134    0.0000 H       1  UNL1        0.0523
     49 H           2.5597   -3.5002    0.0000 H       1  UNL1        0.0523
     50 H           2.3361   -4.3480    0.0000 H       1  UNL1        0.0523
     51 H           3.1839   -4.5717    0.0000 H       1  UNL1        0.0523
     52 H           7.9003    3.4988    0.0000 H       1  UNL1        0.0660
     53 H           7.2876    4.1259    0.0000 H       1  UNL1        0.0660
     54 H           6.6604    3.5131    0.0000 H       1  UNL1        0.0660
     55 H           5.0044    4.5692    0.0000 H       1  UNL1        0.0660
     56 H           4.1550    4.3521    0.0000 H       1  UNL1        0.0660
     57 H           4.3721    3.5026    0.0000 H       1  UNL1        0.0660
@<TRIPOS>BOND
     1     1    13    1
     2     1    26    1
     3     2    14    1
     4     2    27    1
     5     3    18    1
     6     3    24    1
     7     4    19    1
     8     4    24    1
     9     5    22    1
    10     5    28    1
    11     6    25    1
    12     6    29    1
    13     7     8    1
    14     7     9    1
    15     7    13    1
    16     7    30    1
    17     8    10    1
    18     8    14    1
    19     8    31    1
    20     9    11    1
    21     9    15    1
    22     9    32    1
    23    10    12    1
    24    10    33    1
    25    10    34    1
    26    11    12   ar
    27    11    16   ar
    28    12    17   ar
    29    13    35    1
    30    13    36    1
    31    14    37    1
    32    14    38    1
    33    15    20   ar
    34    15    21   ar
    35    16    18   ar
    36    16    39    1
    37    17    19   ar
    38    17    40    1
    39    18    19   ar
    40    20    22   ar
    41    20    41    1
    42    21    23   ar
    43    21    42    1
    44    22    25   ar
    45    23    25   ar
    46    23    43    1
    47    24    44    1
    48    24    45    1
    49    26    46    1
    50    26    47    1
    51    26    48    1
    52    27    49    1
    53    27    50    1
    54    27    51    1
    55    28    52    1
    56    28    53    1
    57    28    54    1
    58    29    55    1
    59    29    56    1
    60    29    57    1
