@<TRIPOS>MOLECULE
IMPHY017936
 7 6 0 0 0
SMALL
GASTEIGER

@<TRIPOS>ATOM
      1 O           2.5369    0.2500    0.0000 O.3     1  UNL1       -0.2151
      2 O           4.2690    1.2500    0.0000 O.2     1  UNL1       -0.2934
      3 C           3.4030   -0.2500    0.0000 C.3     1  UNL1        0.2087
      4 C           5.1350   -0.2500    0.0000 C.3     1  UNL1        0.0672
      5 C           4.2690    0.2500    0.0000 C.2     1  UNL1        0.1807
      6 C           3.4030   -1.2500    0.0000 C.3     1  UNL1        0.0436
      7 C           6.0010    0.2500    0.0000 C.3     1  UNL1        0.0083
@<TRIPOS>BOND
     1     1     3    1
     2     2     5    2
     3     3     5    1
     4     3     6    1
     5     4     5    1
     6     4     7    1
