@<TRIPOS>MOLECULE
IMPHY006491
 15 14 0 0 0
SMALL
GASTEIGER

@<TRIPOS>ATOM
      1 O           3.7320    0.5000    0.0000 O.3     1  UNL1       -0.3894
      2 C           2.8660    0.0000    0.0000 C.3     1  UNL1        0.0577
      3 C           2.0000   -0.5000    0.0000 C.3     1  UNL1       -0.0366
      4 C           2.3660    0.8660    0.0000 C.3     1  UNL1       -0.0366
      5 C           3.3660   -0.8660    0.0000 C.3     1  UNL1       -0.0366
      6 H           1.6900    0.0369    0.0000 H       1  UNL1        0.0257
      7 H           1.4631   -0.8100    0.0000 H       1  UNL1        0.0257
      8 H           2.3100   -1.0369    0.0000 H       1  UNL1        0.0257
      9 H           2.9030    1.1760    0.0000 H       1  UNL1        0.0257
     10 H           2.0560    1.4030    0.0000 H       1  UNL1        0.0257
     11 H           1.8291    0.5560    0.0000 H       1  UNL1        0.0257
     12 H           2.8291   -1.1760    0.0000 H       1  UNL1        0.0257
     13 H           3.6760   -1.4030    0.0000 H       1  UNL1        0.0257
     14 H           3.9030   -0.5560    0.0000 H       1  UNL1        0.0257
     15 H           4.2690    0.1900    0.0000 H       1  UNL1        0.2101
@<TRIPOS>BOND
     1     1     2    1
     2     1    15    1
     3     2     3    1
     4     2     4    1
     5     2     5    1
     6     3     6    1
     7     3     7    1
     8     3     8    1
     9     4     9    1
    10     4    10    1
    11     4    11    1
    12     5    12    1
    13     5    13    1
    14     5    14    1
