@<TRIPOS>MOLECULE
IMPHY001614
 32 36 0 0 0
SMALL
GASTEIGER

@<TRIPOS>ATOM
      1 O           3.4519   -2.7090    0.0000 O.3     1  UNL1       -0.4526
      2 O           2.0000   -1.8708    0.0000 O.3     1  UNL1       -0.4526
      3 O           8.0819   -0.1517    0.0000 O.3     1  UNL1       -0.5067
      4 N           4.5518    1.8725    0.0000 N.ar    1  UNL1       -0.1960
      5 C           5.4178    1.3725    0.0000 C.ar    1  UNL1        0.2191
      6 C           4.9169    2.7968    0.0000 C.3     1  UNL1        0.1552
      7 C           5.9105    2.8164    0.0000 C.3     1  UNL1        0.0385
      8 C           6.3117    1.9072    0.0000 C.ar    1  UNL1        0.0339
      9 C           5.4178    0.3725    0.0000 C.ar    1  UNL1        0.0579
     10 C           4.5518   -0.1275    0.0000 C.ar    1  UNL1        0.0050
     11 C           3.6857    0.3725    0.0000 C.ar    1  UNL1        0.0501
     12 C           3.6857    1.3725    0.0000 C.ar    1  UNL1        0.1796
     13 C           7.2178    1.3933    0.0000 C.ar    1  UNL1       -0.0105
     14 C           6.3117   -0.1622    0.0000 C.ar    1  UNL1       -0.0061
     15 C           4.5678   -1.1690    0.0000 C.ar    1  UNL1       -0.0075
     16 C           2.7757   -0.1344    0.0000 C.ar    1  UNL1       -0.0028
     17 C           7.2178    0.3517    0.0000 C.ar    1  UNL1        0.1181
     18 C           3.6698   -1.6968    0.0000 C.ar    1  UNL1        0.1668
     19 C           2.7677   -1.1760    0.0000 C.ar    1  UNL1        0.1670
     20 C           2.4220   -2.8164    0.0000 C.3     1  UNL1        0.2332
     21 H           4.9863    3.4129    0.0000 H       1  UNL1        0.1034
     22 H           4.3153    2.9467    0.0000 H       1  UNL1        0.1034
     23 H           6.5057    2.9899    0.0000 H       1  UNL1        0.0377
     24 H           5.8168    3.4293    0.0000 H       1  UNL1        0.0377
     25 H           3.1488    1.6825    0.0000 H       1  UNL1        0.1383
     26 H           7.7535    1.7054    0.0000 H       1  UNL1        0.0659
     27 H           6.3046   -0.7821    0.0000 H       1  UNL1        0.0662
     28 H           5.1083   -1.4728    0.0000 H       1  UNL1        0.0662
     29 H           2.2424    0.1818    0.0000 H       1  UNL1        0.0663
     30 H           1.8324   -3.0081    0.0000 H       1  UNL1        0.1166
     31 H           2.5507   -3.4229    0.0000 H       1  UNL1        0.1166
     32 H           8.6200    0.1563    0.0000 H       1  UNL1        0.2921
@<TRIPOS>UNITY_ATOM_ATTR
4 1
charge 1
@<TRIPOS>BOND
     1     1    18    1
     2     1    20    1
     3     2    19    1
     4     2    20    1
     5     3    17    1
     6     3    32    1
     7     4     5   ar
     8     4     6    1
     9     4    12   ar
    10     5     8   ar
    11     5     9   ar
    12     6     7    1
    13     6    21    1
    14     6    22    1
    15     7     8    1
    16     7    23    1
    17     7    24    1
    18     8    13   ar
    19     9    10   ar
    20     9    14   ar
    21    10    11   ar
    22    10    15   ar
    23    11    12   ar
    24    11    16   ar
    25    12    25    1
    26    13    17   ar
    27    13    26    1
    28    14    17   ar
    29    14    27    1
    30    15    18   ar
    31    15    28    1
    32    16    19   ar
    33    16    29    1
    34    18    19   ar
    35    20    30    1
    36    20    31    1
