@<TRIPOS>MOLECULE
IMPHY008693
 41 44 0 0 0
SMALL
GASTEIGER

@<TRIPOS>ATOM
      1 O           6.1719    1.2475    0.0000 O.3     1  UNL1       -0.4569
      2 O           7.0479   -0.2907    0.0000 O.2     1  UNL1       -0.2449
      3 O           2.5394   -1.8826    0.0000 O.3     1  UNL1       -0.4914
      4 O           4.3427   -2.9423    0.0000 O.3     1  UNL1       -0.5033
      5 N           2.5836    1.4497    0.0000 N.3     1  UNL1       -0.2978
      6 C           3.5298    1.7544    0.0000 C.3     1  UNL1        0.0416
      7 C           4.3958    1.2544    0.0000 C.3     1  UNL1        0.0418
      8 C           5.2619    1.7544    0.0000 C.3     1  UNL1        0.1153
      9 C           3.5298    2.7544    0.0000 C.2     1  UNL1       -0.0544
     10 C           2.5836    3.0591    0.0000 C.3     1  UNL1       -0.0174
     11 C           2.0000    2.2544    0.0000 C.3     1  UNL1        0.0029
     12 C           5.2619    2.7544    0.0000 C.3     1  UNL1        0.0035
     13 C           4.3798    0.2129    0.0000 C.ar    1  UNL1       -0.0213
     14 C           4.3958    3.2544    0.0000 C.2     1  UNL1       -0.0797
     15 C           5.2778   -0.3149    0.0000 C.ar    1  UNL1        0.0663
     16 C           2.2729    0.4991    0.0000 C.3     1  UNL1       -0.0122
     17 C           3.4279   -0.3077    0.0000 C.ar    1  UNL1       -0.0119
     18 C           6.1799    0.2059    0.0000 C.2     1  UNL1        0.3399
     19 C           5.2862   -1.3998    0.0000 C.ar    1  UNL1       -0.0023
     20 C           3.4111   -1.3926    0.0000 C.ar    1  UNL1        0.1616
     21 C           4.3466   -1.9423    0.0000 C.ar    1  UNL1        0.1592
     22 C           2.5278   -2.8825    0.0000 C.3     1  UNL1        0.0790
     23 H           3.4399    0.9092    0.0000 H       1  UNL1        0.0516
     24 H           3.6565    0.8351    0.0000 H       1  UNL1        0.0404
     25 H           5.9947    2.1850    0.0000 H       1  UNL1        0.0744
     26 H           2.8346    3.6260    0.0000 H       1  UNL1        0.0323
     27 H           2.0462    3.3684    0.0000 H       1  UNL1        0.0323
     28 H           1.5391    2.6691    0.0000 H       1  UNL1        0.0430
     29 H           1.5391    1.8397    0.0000 H       1  UNL1        0.0430
     30 H           5.8725    2.6467    0.0000 H       1  UNL1        0.0343
     31 H           5.4739    3.3370    0.0000 H       1  UNL1        0.0343
     32 H           4.3958    3.8744    0.0000 H       1  UNL1        0.0573
     33 H           1.6836    0.6917    0.0000 H       1  UNL1        0.0391
     34 H           2.0803   -0.0902    0.0000 H       1  UNL1        0.0391
     35 H           2.8623    0.3065    0.0000 H       1  UNL1        0.0391
     36 H           2.8970    0.0126    0.0000 H       1  UNL1        0.0658
     37 H           5.8243   -1.7078    0.0000 H       1  UNL1        0.0663
     38 H           4.8784   -3.2544    0.0000 H       1  UNL1        0.2923
     39 H           1.9079   -2.8753    0.0000 H       1  UNL1        0.0660
     40 H           2.5207   -3.5024    0.0000 H       1  UNL1        0.0660
     41 H           3.1478   -2.8897    0.0000 H       1  UNL1        0.0660
@<TRIPOS>BOND
     1     1     8    1
     2     1    18    1
     3     2    18    2
     4     3    20    1
     5     3    22    1
     6     4    21    1
     7     4    38    1
     8     5     6    1
     9     5    11    1
    10     5    16    1
    11     6     7    1
    12     6     9    1
    13     6    23    1
    14     7     8    1
    15     7    13    1
    16     7    24    1
    17     8    12    1
    18     8    25    1
    19     9    10    1
    20     9    14    2
    21    10    11    1
    22    10    26    1
    23    10    27    1
    24    11    28    1
    25    11    29    1
    26    12    14    1
    27    12    30    1
    28    12    31    1
    29    13    15   ar
    30    13    17   ar
    31    14    32    1
    32    15    18    1
    33    15    19   ar
    34    16    33    1
    35    16    34    1
    36    16    35    1
    37    17    20   ar
    38    17    36    1
    39    19    21   ar
    40    19    37    1
    41    20    21   ar
    42    22    39    1
    43    22    40    1
    44    22    41    1
