@<TRIPOS>MOLECULE
IMPHY015696
 41 41 0 0 0
SMALL
GASTEIGER

@<TRIPOS>ATOM
      1 O           3.7320   -1.2500    0.0000 O.3     1  UNL1       -0.4570
      2 O           2.0000   -1.2500    0.0000 O.2     1  UNL1       -0.2450
      3 C           5.4641    1.7500    0.0000 C.3     1  UNL1       -0.0285
      4 C           5.4641    2.7500    0.0000 C.3     1  UNL1       -0.0308
      5 C           4.5981    1.2500    0.0000 C.2     1  UNL1       -0.0731
      6 C           6.3301    3.2500    0.0000 C.2     1  UNL1       -0.0850
      7 C           4.5981    0.2500    0.0000 C.2     1  UNL1       -0.0480
      8 C           3.7320    1.7500    0.0000 C.3     1  UNL1       -0.0437
      9 C           6.3301    4.2500    0.0000 C.2     1  UNL1       -0.0796
     10 C           3.7320   -0.2500    0.0000 C.3     1  UNL1        0.1113
     11 C           7.1962    4.7500    0.0000 C.3     1  UNL1       -0.0440
     12 C           5.4641    4.7500    0.0000 C.3     1  UNL1       -0.0440
     13 C           2.8660   -2.7500    0.0000 C.ar    1  UNL1        0.0590
     14 C           2.8660   -1.7500    0.0000 C.2     1  UNL1        0.3395
     15 C           2.0000   -3.2500    0.0000 C.ar    1  UNL1       -0.0478
     16 C           3.7320   -3.2500    0.0000 C.ar    1  UNL1       -0.0478
     17 C           2.0000   -4.2500    0.0000 C.ar    1  UNL1       -0.0610
     18 C           3.7320   -4.2500    0.0000 C.ar    1  UNL1       -0.0610
     19 C           2.8660   -4.7500    0.0000 C.ar    1  UNL1       -0.0617
     20 H           5.6762    1.1674    0.0000 H       1  UNL1        0.0313
     21 H           6.0747    1.8577    0.0000 H       1  UNL1        0.0313
     22 H           5.2520    3.3326    0.0000 H       1  UNL1        0.0310
     23 H           4.8535    2.6423    0.0000 H       1  UNL1        0.0310
     24 H           6.8671    2.9400    0.0000 H       1  UNL1        0.0572
     25 H           5.1350   -0.0600    0.0000 H       1  UNL1        0.0605
     26 H           4.0420    2.2869    0.0000 H       1  UNL1        0.0274
     27 H           3.1951    2.0600    0.0000 H       1  UNL1        0.0274
     28 H           3.4220    1.2131    0.0000 H       1  UNL1        0.0274
     29 H           3.5200    0.3326    0.0000 H       1  UNL1        0.0743
     30 H           3.1215   -0.3577    0.0000 H       1  UNL1        0.0743
     31 H           7.5062    4.2131    0.0000 H       1  UNL1        0.0274
     32 H           7.7331    5.0600    0.0000 H       1  UNL1        0.0274
     33 H           6.8862    5.2869    0.0000 H       1  UNL1        0.0274
     34 H           5.7741    5.2869    0.0000 H       1  UNL1        0.0274
     35 H           4.9272    5.0600    0.0000 H       1  UNL1        0.0274
     36 H           5.1541    4.2131    0.0000 H       1  UNL1        0.0274
     37 H           1.4631   -2.9400    0.0000 H       1  UNL1        0.0626
     38 H           4.2690   -2.9400    0.0000 H       1  UNL1        0.0626
     39 H           1.4631   -4.5600    0.0000 H       1  UNL1        0.0618
     40 H           4.2690   -4.5600    0.0000 H       1  UNL1        0.0618
     41 H           2.8660   -5.3700    0.0000 H       1  UNL1        0.0618
@<TRIPOS>BOND
     1     1    10    1
     2     1    14    1
     3     2    14    2
     4     3     4    1
     5     3     5    1
     6     3    20    1
     7     3    21    1
     8     4     6    1
     9     4    22    1
    10     4    23    1
    11     5     7    2
    12     5     8    1
    13     6     9    2
    14     6    24    1
    15     7    10    1
    16     7    25    1
    17     8    26    1
    18     8    27    1
    19     8    28    1
    20     9    11    1
    21     9    12    1
    22    10    29    1
    23    10    30    1
    24    11    31    1
    25    11    32    1
    26    11    33    1
    27    12    34    1
    28    12    35    1
    29    12    36    1
    30    13    14    1
    31    13    15   ar
    32    13    16   ar
    33    15    17   ar
    34    15    37    1
    35    16    18   ar
    36    16    38    1
    37    17    19   ar
    38    17    39    1
    39    18    19   ar
    40    18    40    1
    41    19    41    1
