@<TRIPOS>MOLECULE
IMPHY003352
 51 56 0 0 0
SMALL
GASTEIGER

@<TRIPOS>ATOM
      1 O           4.0413    2.3767    0.0000 O.3     1  UNL1       -0.4828
      2 O           8.0508    3.3288    0.0000 O.3     1  UNL1       -0.3878
      3 N           5.6945   -1.0854    0.0000 N.ar    1  UNL1       -0.3335
      4 C           7.0874    0.9272    0.0000 C.3     1  UNL1       -0.0083
      5 C           5.8157    1.7219    0.0000 C.3     1  UNL1       -0.0017
      6 C           7.0257   -0.4705    0.0000 C.3     1  UNL1        0.0440
      7 C           6.0745    2.6878    0.0000 C.3     1  UNL1        0.1340
      8 C           5.3379    3.6704    0.0000 C.3     1  UNL1       -0.0034
      9 C           7.8646    1.5565    0.0000 C.3     1  UNL1       -0.0176
     10 C           7.5062    2.4901    0.0000 C.3     1  UNL1        0.0949
     11 C           4.5947    0.8562    0.0000 C.ar    1  UNL1        0.0222
     12 C           4.5381   -0.1839    0.0000 C.ar    1  UNL1        0.0576
     13 C           3.7657    1.4154    0.0000 C.ar    1  UNL1        0.1297
     14 C           8.0235   -0.5374    0.0000 C.3     1  UNL1       -0.0413
     15 C           7.4666   -1.3680    0.0000 C.3     1  UNL1       -0.0413
     16 C           6.3334    3.6537    0.0000 C.3     1  UNL1       -0.0224
     17 C           3.6054   -0.6477    0.0000 C.ar    1  UNL1        0.0084
     18 C           4.9773   -1.8364    0.0000 C.ar    1  UNL1        0.0506
     19 C           3.9609   -1.6235    0.0000 C.ar    1  UNL1        0.0076
     20 C           2.8225    0.9733    0.0000 C.ar    1  UNL1       -0.0078
     21 C           2.7418   -0.0652    0.0000 C.ar    1  UNL1       -0.0456
     22 C           5.3303   -2.8589    0.0000 C.ar    1  UNL1       -0.0376
     23 C           3.2271   -2.4182    0.0000 C.ar    1  UNL1       -0.0520
     24 C           2.0000    1.5420    0.0000 C.3     1  UNL1       -0.0362
     25 C           4.6151   -3.6704    0.0000 C.ar    1  UNL1       -0.0598
     26 C           3.5564   -3.4486    0.0000 C.ar    1  UNL1       -0.0611
     27 H           7.6410    0.6480    0.0000 H       1  UNL1        0.0330
     28 H           6.3180    2.0853    0.0000 H       1  UNL1        0.0355
     29 H           5.6557    4.2028    0.0000 H       1  UNL1        0.0310
     30 H           4.7248    3.7624    0.0000 H       1  UNL1        0.0310
     31 H           8.2022    1.0366    0.0000 H       1  UNL1        0.0295
     32 H           8.4170    1.8380    0.0000 H       1  UNL1        0.0295
     33 H           8.1228    2.4253    0.0000 H       1  UNL1        0.0633
     34 H           7.9820   -1.1560    0.0000 H       1  UNL1        0.0252
     35 H           8.6421   -0.5790    0.0000 H       1  UNL1        0.0252
     36 H           8.0650    0.0812    0.0000 H       1  UNL1        0.0252
     37 H           6.9101   -1.6414    0.0000 H       1  UNL1        0.0252
     38 H           7.7400   -1.9245    0.0000 H       1  UNL1        0.0252
     39 H           8.0231   -1.0947    0.0000 H       1  UNL1        0.0252
     40 H           6.9322    3.4932    0.0000 H       1  UNL1        0.0269
     41 H           6.4938    4.2526    0.0000 H       1  UNL1        0.0269
     42 H           5.7345    3.8142    0.0000 H       1  UNL1        0.0269
     43 H           2.1836   -0.3349    0.0000 H       1  UNL1        0.0628
     44 H           8.6700    3.2964    0.0000 H       1  UNL1        0.2099
     45 H           5.9386   -2.9790    0.0000 H       1  UNL1        0.0638
     46 H           2.6217   -2.2841    0.0000 H       1  UNL1        0.0624
     47 H           2.3526    2.0520    0.0000 H       1  UNL1        0.0279
     48 H           1.4900    1.8946    0.0000 H       1  UNL1        0.0279
     49 H           1.6474    1.0320    0.0000 H       1  UNL1        0.0279
     50 H           4.8107   -4.2588    0.0000 H       1  UNL1        0.0618
     51 H           3.1411   -3.9089    0.0000 H       1  UNL1        0.0618
@<TRIPOS>BOND
     1     1     7    1
     2     1    13    1
     3     2    10    1
     4     2    44    1
     5     3     6    1
     6     3    12   ar
     7     3    18   ar
     8     4     5    1
     9     4     6    1
    10     4     9    1
    11     4    27    1
    12     5     8    1
    13     5    11    1
    14     5    28    1
    15     6    14    1
    16     6    15    1
    17     7     8    1
    18     7    10    1
    19     7    16    1
    20     8    29    1
    21     8    30    1
    22     9    10    1
    23     9    31    1
    24     9    32    1
    25    10    33    1
    26    11    12   ar
    27    11    13   ar
    28    12    17   ar
    29    13    20   ar
    30    14    34    1
    31    14    35    1
    32    14    36    1
    33    15    37    1
    34    15    38    1
    35    15    39    1
    36    16    40    1
    37    16    41    1
    38    16    42    1
    39    17    19   ar
    40    17    21   ar
    41    18    19   ar
    42    18    22   ar
    43    19    23   ar
    44    20    21   ar
    45    20    24    1
    46    21    43    1
    47    22    25   ar
    48    22    45    1
    49    23    26   ar
    50    23    46    1
    51    24    47    1
    52    24    48    1
    53    24    49    1
    54    25    26   ar
    55    25    50    1
    56    26    51    1
