@<TRIPOS>MOLECULE
IMPHY016760
 41 42 0 0 0
SMALL
GASTEIGER

@<TRIPOS>ATOM
      1 O           3.7320   -1.4573    0.0000 O.3     1  UNL1       -0.2294
      2 O           2.8660   -1.9573    0.0000 O.3     1  UNL1       -0.2495
      3 C           4.5981    0.0427    0.0000 C.3     1  UNL1        0.0020
      4 C           4.5981    1.0427    0.0000 C.3     1  UNL1       -0.0286
      5 C           5.4920   -0.4920    0.0000 C.3     1  UNL1       -0.0147
      6 C           5.4920    1.5774    0.0000 C.3     1  UNL1       -0.0225
      7 C           3.7320   -0.4573    0.0000 C.3     1  UNL1        0.1179
      8 C           3.7320    1.5427    0.0000 C.3     1  UNL1       -0.0456
      9 C           5.4804   -1.4919    0.0000 C.3     1  UNL1       -0.0401
     10 C           2.8660    1.0427    0.0000 C.3     1  UNL1       -0.0292
     11 C           2.8660    0.0427    0.0000 C.2     1  UNL1       -0.0450
     12 C           6.3981    0.0219    0.0000 C.2     1  UNL1       -0.0840
     13 C           6.3981    1.0635    0.0000 C.2     1  UNL1       -0.0845
     14 C           5.4804    2.5773    0.0000 C.3     1  UNL1       -0.0587
     15 C           6.3406   -2.0019    0.0000 C.3     1  UNL1       -0.0621
     16 C           4.6087   -1.9818    0.0000 C.3     1  UNL1       -0.0621
     17 C           2.0000   -0.4573    0.0000 C.2     1  UNL1       -0.0969
     18 H           4.5933   -0.5773    0.0000 H       1  UNL1        0.0339
     19 H           4.5933    1.6627    0.0000 H       1  UNL1        0.0310
     20 H           6.0259   -0.8071    0.0000 H       1  UNL1        0.0349
     21 H           6.0259    1.8925    0.0000 H       1  UNL1        0.0343
     22 H           3.1951   -0.7673    0.0000 H       1  UNL1        0.0678
     23 H           4.1306    2.0176    0.0000 H       1  UNL1        0.0271
     24 H           3.3335    2.0176    0.0000 H       1  UNL1        0.0271
     25 H           6.0209   -1.1881    0.0000 H       1  UNL1        0.0301
     26 H           2.6540    1.6253    0.0000 H       1  UNL1        0.0311
     27 H           2.2554    0.9350    0.0000 H       1  UNL1        0.0311
     28 H           6.9338   -0.2902    0.0000 H       1  UNL1        0.0572
     29 H           6.9338    1.3756    0.0000 H       1  UNL1        0.0572
     30 H           6.1004    2.5845    0.0000 H       1  UNL1        0.0235
     31 H           5.4733    3.1973    0.0000 H       1  UNL1        0.0235
     32 H           4.8605    2.5701    0.0000 H       1  UNL1        0.0235
     33 H           6.0244   -2.5352    0.0000 H       1  UNL1        0.0233
     34 H           6.8740   -2.3181    0.0000 H       1  UNL1        0.0233
     35 H           6.6568   -1.4686    0.0000 H       1  UNL1        0.0233
     36 H           4.3049   -1.4414    0.0000 H       1  UNL1        0.0233
     37 H           4.0682   -2.2856    0.0000 H       1  UNL1        0.0233
     38 H           4.9125   -2.5223    0.0000 H       1  UNL1        0.0233
     39 H           1.4631   -0.1473    0.0000 H       1  UNL1        0.0535
     40 H           2.0000   -1.0773    0.0000 H       1  UNL1        0.0535
     41 H           2.8660   -2.5773    0.0000 H       1  UNL1        0.2531
@<TRIPOS>BOND
     1     1     2    1
     2     1     7    1
     3     2    41    1
     4     3     4    1
     5     3     5    1
     6     3     7    1
     7     3    18    1
     8     4     6    1
     9     4     8    1
    10     4    19    1
    11     5     9    1
    12     5    12    1
    13     5    20    1
    14     6    13    1
    15     6    14    1
    16     6    21    1
    17     7    11    1
    18     7    22    1
    19     8    10    1
    20     8    23    1
    21     8    24    1
    22     9    15    1
    23     9    16    1
    24     9    25    1
    25    10    11    1
    26    10    26    1
    27    10    27    1
    28    11    17    2
    29    12    13    2
    30    12    28    1
    31    13    29    1
    32    14    30    1
    33    14    31    1
    34    14    32    1
    35    15    33    1
    36    15    34    1
    37    15    35    1
    38    16    36    1
    39    16    37    1
    40    16    38    1
    41    17    39    1
    42    17    40    1
