@<TRIPOS>MOLECULE
IMPHY016199
 42 45 0 0 0
SMALL
GASTEIGER

@<TRIPOS>ATOM
      1 O           3.5339   -0.3638    0.0000 O.3     1  UNL1       -0.3475
      2 O           2.4217   -0.7693    0.0000 O.3     1  UNL1       -0.3912
      3 O           4.9146    0.6820    0.0000 O.3     1  UNL1       -0.3513
      4 C           4.5201   -2.4006    0.0000 C.3     1  UNL1       -0.0092
      5 C           5.0201   -0.2100    0.0000 C.3     1  UNL1       -0.0092
      6 C           3.6192   -1.9667    0.0000 C.3     1  UNL1       -0.0095
      7 C           4.0201   -0.2100    0.0000 C.3     1  UNL1       -0.0095
      8 C           4.1377   -1.1610    0.0000 C.3     1  UNL1        0.0679
      9 C           3.3966   -0.9918    0.0000 C.3     1  UNL1        0.0615
     10 C           5.4211   -1.9667    0.0000 C.3     1  UNL1       -0.0472
     11 C           5.6436   -0.9918    0.0000 C.3     1  UNL1       -0.0472
     12 C           2.8199   -1.3713    0.0000 C.3     1  UNL1       -0.0472
     13 C           3.0417   -0.3996    0.0000 C.3     1  UNL1       -0.0472
     14 C           3.9224    0.5577    0.0000 C.3     1  UNL1        0.1595
     15 C           3.3186    1.3548    0.0000 C.3     1  UNL1       -0.0015
     16 C           3.7070    2.2763    0.0000 C.3     1  UNL1       -0.0464
     17 C           5.3030    1.6035    0.0000 C.3     1  UNL1        0.0507
     18 C           4.6992    2.4006    0.0000 C.3     1  UNL1       -0.0292
     19 H           4.5201   -3.0206    0.0000 H       1  UNL1        0.0329
     20 H           5.2891    0.3486    0.0000 H       1  UNL1        0.0329
     21 H           3.2980   -2.4971    0.0000 H       1  UNL1        0.0329
     22 H           3.9608    0.4072    0.0000 H       1  UNL1        0.0329
     23 H           3.5860   -1.4438    0.0000 H       1  UNL1        0.0603
     24 H           4.0011   -1.1298    0.0000 H       1  UNL1        0.0599
     25 H           5.5591   -2.5712    0.0000 H       1  UNL1        0.0269
     26 H           6.0411   -1.9667    0.0000 H       1  UNL1        0.0269
     27 H           6.2022   -1.2608    0.0000 H       1  UNL1        0.0269
     28 H           6.0302   -0.5071    0.0000 H       1  UNL1        0.0269
     29 H           2.2403   -1.1511    0.0000 H       1  UNL1        0.0269
     30 H           2.5218   -1.9149    0.0000 H       1  UNL1        0.0269
     31 H           3.0089    0.2195    0.0000 H       1  UNL1        0.0269
     32 H           2.4240   -0.3465    0.0000 H       1  UNL1        0.0269
     33 H           2.0000   -1.2238    0.0000 H       1  UNL1        0.2098
     34 H           3.3072    0.4806    0.0000 H       1  UNL1        0.0909
     35 H           2.7978    1.6912    0.0000 H       1  UNL1        0.0314
     36 H           2.8969    0.9003    0.0000 H       1  UNL1        0.0314
     37 H           3.7379    2.8955    0.0000 H       1  UNL1        0.0268
     38 H           3.1026    2.4142    0.0000 H       1  UNL1        0.0268
     39 H           5.8239    1.2671    0.0000 H       1  UNL1        0.0561
     40 H           5.7248    2.0580    0.0000 H       1  UNL1        0.0561
     41 H           5.2510    2.6835    0.0000 H       1  UNL1        0.0287
     42 H           4.5165    2.9931    0.0000 H       1  UNL1        0.0287
@<TRIPOS>BOND
     1     1     8    1
     2     1    14    1
     3     2     9    1
     4     2    33    1
     5     3    14    1
     6     3    17    1
     7     4     6    1
     8     4     8    1
     9     4    10    1
    10     4    19    1
    11     5     7    1
    12     5     8    1
    13     5    11    1
    14     5    20    1
    15     6     9    1
    16     6    12    1
    17     6    21    1
    18     7     9    1
    19     7    13    1
    20     7    22    1
    21     8    23    1
    22     9    24    1
    23    10    11    1
    24    10    25    1
    25    10    26    1
    26    11    27    1
    27    11    28    1
    28    12    13    1
    29    12    29    1
    30    12    30    1
    31    13    31    1
    32    13    32    1
    33    14    15    1
    34    14    34    1
    35    15    16    1
    36    15    35    1
    37    15    36    1
    38    16    18    1
    39    16    37    1
    40    16    38    1
    41    17    18    1
    42    17    39    1
    43    17    40    1
    44    18    41    1
    45    18    42    1
