@<TRIPOS>MOLECULE
IMPHY004655
 31 34 0 0 0
SMALL
GASTEIGER

@<TRIPOS>ATOM
      1 N           4.5274   -0.1301    0.0000 N.ar    1  UNL1       -0.3524
      2 N           7.0547   -1.2544    0.0000 N.ar    1  UNL1       -0.2513
      3 N           7.6255    0.6881    0.0000 N.ar    1  UNL1       -0.2131
      4 N           7.2458    2.3780    0.0000 N.ar    1  UNL1       -0.2231
      5 N           8.8991    1.8619    0.0000 N.pl3   1  UNL1       -0.3275
      6 C           5.0274   -1.6690    0.0000 C.ar    1  UNL1        0.0110
      7 C           5.3364   -0.7179    0.0000 C.ar    1  UNL1        0.0753
      8 C           4.0274   -1.6690    0.0000 C.ar    1  UNL1        0.0075
      9 C           3.7183   -0.7179    0.0000 C.ar    1  UNL1        0.0475
     10 C           6.3518   -0.4857    0.0000 C.ar    1  UNL1        0.1131
     11 C           5.7123   -2.4537    0.0000 C.ar    1  UNL1       -0.0338
     12 C           3.3424   -2.4537    0.0000 C.ar    1  UNL1       -0.0520
     13 C           2.7029   -0.4857    0.0000 C.ar    1  UNL1       -0.0378
     14 C           6.6498    0.4689    0.0000 C.ar    1  UNL1        0.0962
     15 C           6.7328   -2.2450    0.0000 C.ar    1  UNL1        0.0290
     16 C           2.3219   -2.2450    0.0000 C.ar    1  UNL1       -0.0611
     17 C           2.0000   -1.2544    0.0000 C.ar    1  UNL1       -0.0598
     18 C           5.9721    1.2043    0.0000 C.ar    1  UNL1       -0.0158
     19 C           6.2701    2.1588    0.0000 C.ar    1  UNL1        0.0333
     20 C           7.9235    1.6427    0.0000 C.ar    1  UNL1        0.2131
     21 H           4.5274    0.4899    0.0000 H       1  UNL1        0.1660
     22 H           5.5139   -3.0411    0.0000 H       1  UNL1        0.0639
     23 H           3.5408   -3.0411    0.0000 H       1  UNL1        0.0624
     24 H           2.5182    0.1062    0.0000 H       1  UNL1        0.0638
     25 H           7.1459   -2.7074    0.0000 H       1  UNL1        0.0830
     26 H           1.9088   -2.7074    0.0000 H       1  UNL1        0.0618
     27 H           1.3940   -1.1231    0.0000 H       1  UNL1        0.0618
     28 H           5.3672    1.0684    0.0000 H       1  UNL1        0.0655
     29 H           5.8499    2.6147    0.0000 H       1  UNL1        0.0831
     30 H           9.0839    2.4537    0.0000 H       1  UNL1        0.1452
     31 H           9.3193    1.4060    0.0000 H       1  UNL1        0.1452
@<TRIPOS>BOND
     1     1     7   ar
     2     1     9   ar
     3     1    21    1
     4     2    10   ar
     5     2    15   ar
     6     3    14   ar
     7     3    20   ar
     8     4    19   ar
     9     4    20   ar
    10     5    20    1
    11     5    30    1
    12     5    31    1
    13     6     7   ar
    14     6     8   ar
    15     6    11   ar
    16     7    10   ar
    17     8     9   ar
    18     8    12   ar
    19     9    13   ar
    20    10    14    1
    21    11    15   ar
    22    11    22    1
    23    12    16   ar
    24    12    23    1
    25    13    17   ar
    26    13    24    1
    27    14    18   ar
    28    15    25    1
    29    16    17   ar
    30    16    26    1
    31    17    27    1
    32    18    19   ar
    33    18    28    1
    34    19    29    1
