@<TRIPOS>MOLECULE
IMPHY001480
 43 48 0 0 0
SMALL
GASTEIGER

@<TRIPOS>ATOM
      1 O           2.4277   -0.0708    0.0000 O.2     1  UNL1       -0.2896
      2 O           2.1153    1.6096    0.0000 O.3     1  UNL1       -0.4519
      3 O           7.8155   -1.1950    0.0000 O.3     1  UNL1       -0.4526
      4 O           7.8155   -2.8715    0.0000 O.3     1  UNL1       -0.4526
      5 O           2.9423    3.0679    0.0000 O.3     1  UNL1       -0.4526
      6 N           3.2978   -1.5332    0.0000 N.3     1  UNL1       -0.2889
      7 C           4.1639   -1.0332    0.0000 C.3     1  UNL1        0.1148
      8 C           4.9729   -0.4455    0.0000 C.3     1  UNL1        0.0031
      9 C           5.0299   -1.5332    0.0000 C.ar    1  UNL1       -0.0125
     10 C           3.3548   -0.4455    0.0000 C.2     1  UNL1        0.1919
     11 C           3.2978   -2.5332    0.0000 C.3     1  UNL1        0.0038
     12 C           4.6639    0.5056    0.0000 C.ar    1  UNL1       -0.0306
     13 C           5.0299   -2.5332    0.0000 C.ar    1  UNL1       -0.0371
     14 C           3.6639    0.5056    0.0000 C.ar    1  UNL1        0.0683
     15 C           4.1639   -3.0332    0.0000 C.3     1  UNL1       -0.0144
     16 C           5.9238   -0.9986    0.0000 C.ar    1  UNL1       -0.0105
     17 C           2.3130   -1.7069    0.0000 C.3     1  UNL1       -0.0115
     18 C           3.1292    1.3995    0.0000 C.ar    1  UNL1        0.1770
     19 C           5.9238   -3.0679    0.0000 C.ar    1  UNL1       -0.0126
     20 C           5.1985    1.3995    0.0000 C.ar    1  UNL1       -0.0541
     21 C           6.8299   -1.5124    0.0000 C.ar    1  UNL1        0.1666
     22 C           6.8299   -2.5541    0.0000 C.ar    1  UNL1        0.1665
     23 C           3.6430    2.3056    0.0000 C.ar    1  UNL1        0.1670
     24 C           4.6847    2.3056    0.0000 C.ar    1  UNL1       -0.0158
     25 C           2.0000    2.6387    0.0000 C.3     1  UNL1        0.2333
     26 C           8.4234   -2.0332    0.0000 C.3     1  UNL1        0.2332
     27 H           5.2829   -0.9824    0.0000 H       1  UNL1        0.0339
     28 H           5.5393   -0.1933    0.0000 H       1  UNL1        0.0339
     29 H           2.6873   -2.4256    0.0000 H       1  UNL1        0.0430
     30 H           3.0858   -3.1159    0.0000 H       1  UNL1        0.0430
     31 H           3.7653   -3.5082    0.0000 H       1  UNL1        0.0326
     32 H           4.5624   -3.5082    0.0000 H       1  UNL1        0.0326
     33 H           5.9167   -0.3786    0.0000 H       1  UNL1        0.0659
     34 H           2.2054   -1.0963    0.0000 H       1  UNL1        0.0391
     35 H           1.7024   -1.8146    0.0000 H       1  UNL1        0.0391
     36 H           2.4207   -2.3175    0.0000 H       1  UNL1        0.0391
     37 H           5.9167   -3.6879    0.0000 H       1  UNL1        0.0658
     38 H           5.8185    1.3924    0.0000 H       1  UNL1        0.0622
     39 H           4.9967    2.8413    0.0000 H       1  UNL1        0.0655
     40 H           1.8037    3.2268    0.0000 H       1  UNL1        0.1166
     41 H           1.3945    2.5053    0.0000 H       1  UNL1        0.1166
     42 H           8.8843   -2.4480    0.0000 H       1  UNL1        0.1166
     43 H           8.8843   -1.6185    0.0000 H       1  UNL1        0.1166
@<TRIPOS>BOND
     1     1    10    2
     2     2    18    1
     3     2    25    1
     4     3    21    1
     5     3    26    1
     6     4    22    1
     7     4    26    1
     8     5    23    1
     9     5    25    1
    10     7     6    1
    11     6    11    1
    12     6    17    1
    13     7     8    1
    14     7     9    1
    15     7    10    1
    16     8    12    1
    17     8    27    1
    18     8    28    1
    19     9    13   ar
    20     9    16   ar
    21    10    14    1
    22    11    15    1
    23    11    29    1
    24    11    30    1
    25    12    14   ar
    26    12    20   ar
    27    13    15    1
    28    13    19   ar
    29    14    18   ar
    30    15    31    1
    31    15    32    1
    32    16    21   ar
    33    16    33    1
    34    17    34    1
    35    17    35    1
    36    17    36    1
    37    18    23   ar
    38    19    22   ar
    39    19    37    1
    40    20    24   ar
    41    20    38    1
    42    21    22   ar
    43    23    24   ar
    44    24    39    1
    45    25    40    1
    46    25    41    1
    47    26    42    1
    48    26    43    1
