@<TRIPOS>MOLECULE
IMPHY012110
 24 24 0 0 0
SMALL
GASTEIGER

@<TRIPOS>ATOM
      1 C           2.0000   -0.5000    0.0000 C.3     1  UNL1       -0.0531
      2 C           2.0000    0.5000    0.0000 C.3     1  UNL1       -0.0531
      3 C           2.7071   -1.2071    0.0000 C.3     1  UNL1       -0.0531
      4 C           2.7071    1.2071    0.0000 C.3     1  UNL1       -0.0531
      5 C           3.7071   -1.2071    0.0000 C.3     1  UNL1       -0.0531
      6 C           3.7071    1.2071    0.0000 C.3     1  UNL1       -0.0531
      7 C           4.4142   -0.5000    0.0000 C.3     1  UNL1       -0.0531
      8 C           4.4142    0.5000    0.0000 C.3     1  UNL1       -0.0531
      9 H           1.4011   -0.3395    0.0000 H       1  UNL1        0.0265
     10 H           1.6900   -1.0369    0.0000 H       1  UNL1        0.0265
     11 H           1.6900    1.0369    0.0000 H       1  UNL1        0.0265
     12 H           1.4011    0.3395    0.0000 H       1  UNL1        0.0265
     13 H           2.1702   -1.5171    0.0000 H       1  UNL1        0.0265
     14 H           2.8676   -1.8060    0.0000 H       1  UNL1        0.0265
     15 H           2.8676    1.8060    0.0000 H       1  UNL1        0.0265
     16 H           2.1702    1.5171    0.0000 H       1  UNL1        0.0265
     17 H           3.5466   -1.8060    0.0000 H       1  UNL1        0.0265
     18 H           4.2440   -1.5171    0.0000 H       1  UNL1        0.0265
     19 H           4.2440    1.5171    0.0000 H       1  UNL1        0.0265
     20 H           3.5466    1.8060    0.0000 H       1  UNL1        0.0265
     21 H           4.7242   -1.0369    0.0000 H       1  UNL1        0.0265
     22 H           5.0131   -0.3395    0.0000 H       1  UNL1        0.0265
     23 H           5.0131    0.3395    0.0000 H       1  UNL1        0.0265
     24 H           4.7242    1.0369    0.0000 H       1  UNL1        0.0265
@<TRIPOS>BOND
     1     1     2    1
     2     1     3    1
     3     1     9    1
     4     1    10    1
     5     2     4    1
     6     2    11    1
     7     2    12    1
     8     3     5    1
     9     3    13    1
    10     3    14    1
    11     4     6    1
    12     4    15    1
    13     4    16    1
    14     5     7    1
    15     5    17    1
    16     5    18    1
    17     6     8    1
    18     6    19    1
    19     6    20    1
    20     7     8    1
    21     7    21    1
    22     7    22    1
    23     8    23    1
    24     8    24    1
