@<TRIPOS>MOLECULE
IMPHY013527
 80 85 0 0 0
SMALL
GASTEIGER

@<TRIPOS>ATOM
      1 O          10.1390    1.6686    0.0000 O.3     1  UNL1       -0.3454
      2 O           8.1392    3.6012    0.0000 O.3     1  UNL1       -0.3627
      3 O          10.9453    0.0794    0.0000 O.3     1  UNL1       -0.3667
      4 O           2.5357   -3.9464    0.0000 O.3     1  UNL1       -0.3872
      5 C           7.9288   -0.8941    0.0000 C.3     1  UNL1       -0.0197
      6 C           7.9288   -1.8941    0.0000 C.3     1  UNL1       -0.0051
      7 C           8.8750   -0.5893    0.0000 C.3     1  UNL1       -0.0273
      8 C           6.1968   -1.8941    0.0000 C.3     1  UNL1       -0.0102
      9 C           7.0628   -2.3941    0.0000 C.2     1  UNL1       -0.0631
     10 C           8.8750   -2.1988    0.0000 C.3     1  UNL1       -0.0431
     11 C           7.0628   -0.3941    0.0000 C.3     1  UNL1       -0.0460
     12 C           9.4586   -1.3941    0.0000 C.3     1  UNL1       -0.0485
     13 C           5.2868   -2.4009    0.0000 C.3     1  UNL1       -0.0038
     14 C           9.1857    0.3612    0.0000 C.3     1  UNL1        0.0157
     15 C           6.1968   -0.8941    0.0000 C.3     1  UNL1       -0.0452
     16 C           5.2787   -3.4425    0.0000 C.3     1  UNL1       -0.0204
     17 C           7.9288    0.1059    0.0000 C.3     1  UNL1       -0.0585
     18 C           7.9288   -2.8941    0.0000 C.3     1  UNL1       -0.0553
     19 C           7.0789   -3.4356    0.0000 C.2     1  UNL1       -0.0836
     20 C           4.3433   -3.9922    0.0000 C.3     1  UNL1       -0.0014
     21 C           8.5993    1.1712    0.0000 C.3     1  UNL1       -0.0163
     22 C           6.1808   -3.9633    0.0000 C.3     1  UNL1       -0.0303
     23 C          10.1373    0.6686    0.0000 C.3     1  UNL1        0.1598
     24 C           9.1885    1.9792    0.0000 C.3     1  UNL1        0.0909
     25 C           4.3599   -1.8368    0.0000 C.2     1  UNL1       -0.0787
     26 C           5.2945   -1.4009    0.0000 C.3     1  UNL1       -0.0553
     27 C           8.8811    2.9308    0.0000 C.3     1  UNL1        0.1139
     28 C           3.4037   -3.4497    0.0000 C.3     1  UNL1        0.0788
     29 C           9.0907    3.9086    0.0000 C.3     1  UNL1        0.0930
     30 C           3.4120   -2.3648    0.0000 C.2     1  UNL1       -0.0588
     31 C           3.8467   -4.8602    0.0000 C.3     1  UNL1       -0.0569
     32 C           4.8466   -4.8563    0.0000 C.3     1  UNL1       -0.0569
     33 C           8.7834    4.8602    0.0000 C.3     1  UNL1       -0.0335
     34 C          10.0685    3.6990    0.0000 C.3     1  UNL1       -0.0335
     35 H           9.4875   -0.4931    0.0000 H       1  UNL1        0.0311
     36 H           6.7337   -1.5841    0.0000 H       1  UNL1        0.0354
     37 H           8.6240   -2.7657    0.0000 H       1  UNL1        0.0274
     38 H           9.4124   -2.5080    0.0000 H       1  UNL1        0.0274
     39 H           7.4613    0.0809    0.0000 H       1  UNL1        0.0271
     40 H           6.6643    0.0809    0.0000 H       1  UNL1        0.0271
     41 H           9.9195   -1.8088    0.0000 H       1  UNL1        0.0268
     42 H           9.9195   -0.9793    0.0000 H       1  UNL1        0.0268
     43 H           8.5732    0.2653    0.0000 H       1  UNL1        0.0353
     44 H           5.9847   -0.3115    0.0000 H       1  UNL1        0.0271
     45 H           5.5862   -1.0017    0.0000 H       1  UNL1        0.0271
     46 H           5.2811   -4.0625    0.0000 H       1  UNL1        0.0318
     47 H           8.5488    0.1059    0.0000 H       1  UNL1        0.0235
     48 H           7.9288    0.7259    0.0000 H       1  UNL1        0.0235
     49 H           7.3088    0.1059    0.0000 H       1  UNL1        0.0235
     50 H           7.3088   -2.8941    0.0000 H       1  UNL1        0.0238
     51 H           7.9288   -3.5141    0.0000 H       1  UNL1        0.0238
     52 H           8.5488   -2.8941    0.0000 H       1  UNL1        0.0238
     53 H           7.6193   -3.7393    0.0000 H       1  UNL1        0.0572
     54 H           8.1393    1.5869    0.0000 H       1  UNL1        0.0295
     55 H           8.1378    0.7572    0.0000 H       1  UNL1        0.0295
     56 H           5.7835   -4.4393    0.0000 H       1  UNL1        0.0311
     57 H           6.5818   -4.4362    0.0000 H       1  UNL1        0.0311
     58 H          10.0392    0.0564    0.0000 H       1  UNL1        0.0910
     59 H           9.6277    2.4169    0.0000 H       1  UNL1        0.0624
     60 H           4.3719   -1.2170    0.0000 H       1  UNL1        0.0576
     61 H           5.9145   -1.4057    0.0000 H       1  UNL1        0.0238
     62 H           5.2993   -0.7810    0.0000 H       1  UNL1        0.0238
     63 H           4.6745   -1.3962    0.0000 H       1  UNL1        0.0238
     64 H           8.3606    2.5940    0.0000 H       1  UNL1        0.0651
     65 H           3.4025   -4.0697    0.0000 H       1  UNL1        0.0643
     66 H           2.8787   -2.0486    0.0000 H       1  UNL1        0.0595
     67 H           3.3085   -4.5523    0.0000 H       1  UNL1        0.0236
     68 H           3.5387   -5.3983    0.0000 H       1  UNL1        0.0236
     69 H           4.3848   -5.1681    0.0000 H       1  UNL1        0.0236
     70 H           4.3109   -5.1684    0.0000 H       1  UNL1        0.0236
     71 H           5.1587   -5.3921    0.0000 H       1  UNL1        0.0236
     72 H           5.3824   -4.5443    0.0000 H       1  UNL1        0.0236
     73 H          11.5121    0.3306    0.0000 H       1  UNL1        0.2125
     74 H           9.3734    5.0508    0.0000 H       1  UNL1        0.0258
     75 H           8.5928    5.4502    0.0000 H       1  UNL1        0.0258
     76 H           8.1934    4.6696    0.0000 H       1  UNL1        0.0258
     77 H           9.9386    3.0928    0.0000 H       1  UNL1        0.0258
     78 H          10.6748    3.5690    0.0000 H       1  UNL1        0.0258
     79 H          10.1985    4.3052    0.0000 H       1  UNL1        0.0258
     80 H           2.0000   -3.6343    0.0000 H       1  UNL1        0.2102
@<TRIPOS>BOND
     1     1    23    1
     2     1    24    1
     3     2    27    1
     4     2    29    1
     5     3    23    1
     6     3    73    1
     7     4    28    1
     8     4    80    1
     9     5     6    1
    10     5     7    1
    11     5    11    1
    12     5    17    1
    13     6     9    1
    14     6    10    1
    15     6    18    1
    16     7    12    1
    17     7    14    1
    18     7    35    1
    19     8     9    1
    20     8    13    1
    21     8    15    1
    22     8    36    1
    23     9    19    2
    24    10    12    1
    25    10    37    1
    26    10    38    1
    27    11    15    1
    28    11    39    1
    29    11    40    1
    30    12    41    1
    31    12    42    1
    32    13    16    1
    33    13    25    1
    34    13    26    1
    35    14    21    1
    36    14    23    1
    37    14    43    1
    38    15    44    1
    39    15    45    1
    40    16    20    1
    41    16    22    1
    42    16    46    1
    43    17    47    1
    44    17    48    1
    45    17    49    1
    46    18    50    1
    47    18    51    1
    48    18    52    1
    49    19    22    1
    50    19    53    1
    51    20    28    1
    52    20    31    1
    53    20    32    1
    54    21    24    1
    55    21    54    1
    56    21    55    1
    57    22    56    1
    58    22    57    1
    59    23    58    1
    60    24    27    1
    61    24    59    1
    62    25    30    2
    63    25    60    1
    64    26    61    1
    65    26    62    1
    66    26    63    1
    67    27    29    1
    68    27    64    1
    69    28    30    1
    70    28    65    1
    71    29    33    1
    72    29    34    1
    73    30    66    1
    74    31    67    1
    75    31    68    1
    76    31    69    1
    77    32    70    1
    78    32    71    1
    79    32    72    1
    80    33    74    1
    81    33    75    1
    82    33    76    1
    83    34    77    1
    84    34    78    1
    85    34    79    1
