@<TRIPOS>MOLECULE
IMPHY015525
 44 43 0 0 0
SMALL
GASTEIGER

@<TRIPOS>ATOM
      1 O           5.4641    0.7500    0.0000 O.3     1  UNL1       -0.4646
      2 O           6.3301   -0.7500    0.0000 O.2     1  UNL1       -0.2509
      3 C           9.7942    0.2500    0.0000 C.3     1  UNL1       -0.0530
      4 C          10.6603    0.7500    0.0000 C.3     1  UNL1       -0.0531
      5 C           8.9282    0.7500    0.0000 C.3     1  UNL1       -0.0526
      6 C          11.5263    0.2500    0.0000 C.3     1  UNL1       -0.0531
      7 C           8.0622    0.2500    0.0000 C.3     1  UNL1       -0.0430
      8 C          12.3923    0.7500    0.0000 C.3     1  UNL1       -0.0533
      9 C          13.2583    0.2500    0.0000 C.3     1  UNL1       -0.0559
     10 C           7.1962    0.7500    0.0000 C.3     1  UNL1        0.0449
     11 C          14.1244    0.7500    0.0000 C.3     1  UNL1       -0.0653
     12 C           6.3301    0.2500    0.0000 C.2     1  UNL1        0.3071
     13 C           3.7320    0.7500    0.0000 C.3     1  UNL1       -0.0188
     14 C           4.5981    0.2500    0.0000 C.3     1  UNL1        0.0924
     15 C           2.8660    0.2500    0.0000 C.3     1  UNL1       -0.0528
     16 C           2.0000    0.7500    0.0000 C.3     1  UNL1       -0.0652
     17 H           9.3957   -0.2249    0.0000 H       1  UNL1        0.0265
     18 H          10.1928   -0.2249    0.0000 H       1  UNL1        0.0265
     19 H          11.0588    1.2250    0.0000 H       1  UNL1        0.0265
     20 H          10.2617    1.2250    0.0000 H       1  UNL1        0.0265
     21 H           9.3267    1.2250    0.0000 H       1  UNL1        0.0265
     22 H           8.5297    1.2250    0.0000 H       1  UNL1        0.0265
     23 H          11.1278   -0.2249    0.0000 H       1  UNL1        0.0265
     24 H          11.9248   -0.2249    0.0000 H       1  UNL1        0.0265
     25 H           7.6636   -0.2249    0.0000 H       1  UNL1        0.0270
     26 H           8.4607   -0.2249    0.0000 H       1  UNL1        0.0270
     27 H          12.7908    1.2250    0.0000 H       1  UNL1        0.0265
     28 H          11.9938    1.2250    0.0000 H       1  UNL1        0.0265
     29 H           7.5947    1.2250    0.0000 H       1  UNL1        0.0377
     30 H           6.7976    1.2250    0.0000 H       1  UNL1        0.0377
     31 H          12.8598   -0.2249    0.0000 H       1  UNL1        0.0263
     32 H          13.6569   -0.2249    0.0000 H       1  UNL1        0.0263
     33 H          14.4344    0.2131    0.0000 H       1  UNL1        0.0230
     34 H          14.6613    1.0600    0.0000 H       1  UNL1        0.0230
     35 H          13.8144    1.2869    0.0000 H       1  UNL1        0.0230
     36 H           4.1306    1.2250    0.0000 H       1  UNL1        0.0298
     37 H           3.3335    1.2250    0.0000 H       1  UNL1        0.0298
     38 H           4.1996   -0.2249    0.0000 H       1  UNL1        0.0697
     39 H           4.9966   -0.2249    0.0000 H       1  UNL1        0.0697
     40 H           2.4675   -0.2249    0.0000 H       1  UNL1        0.0264
     41 H           3.2646   -0.2249    0.0000 H       1  UNL1        0.0264
     42 H           2.3100    1.2869    0.0000 H       1  UNL1        0.0230
     43 H           1.4631    1.0600    0.0000 H       1  UNL1        0.0230
     44 H           1.6900    0.2131    0.0000 H       1  UNL1        0.0230
@<TRIPOS>BOND
     1     1    12    1
     2     1    14    1
     3     2    12    2
     4     3     4    1
     5     3     5    1
     6     3    17    1
     7     3    18    1
     8     4     6    1
     9     4    19    1
    10     4    20    1
    11     5     7    1
    12     5    21    1
    13     5    22    1
    14     6     8    1
    15     6    23    1
    16     6    24    1
    17     7    10    1
    18     7    25    1
    19     7    26    1
    20     8     9    1
    21     8    27    1
    22     8    28    1
    23     9    11    1
    24     9    31    1
    25     9    32    1
    26    10    12    1
    27    10    29    1
    28    10    30    1
    29    11    33    1
    30    11    34    1
    31    11    35    1
    32    13    14    1
    33    13    15    1
    34    13    36    1
    35    13    37    1
    36    14    38    1
    37    14    39    1
    38    15    16    1
    39    15    40    1
    40    15    41    1
    41    16    42    1
    42    16    43    1
    43    16    44    1
