@<TRIPOS>MOLECULE
IMPHY005642
 28 28 0 0 0
SMALL
GASTEIGER

@<TRIPOS>ATOM
      1 O           4.3426    0.6407    0.0000 O.3     1  UNL1       -0.3826
      2 O           4.6847   -2.2990    0.0000 O.3     1  UNL1       -0.4612
      3 O           2.9526   -2.2990    0.0000 O.2     1  UNL1       -0.2452
      4 O           6.6846    1.4330    0.0000 O.2     1  UNL1       -0.3003
      5 N           2.6106    0.6407    0.0000 N.pl3   1  UNL1       -0.3633
      6 C           4.6847   -0.2990    0.0000 C.3     1  UNL1        0.1144
      7 C           5.5507   -0.7990    0.0000 C.3     1  UNL1        0.0158
      8 C           5.1847    0.5670    0.0000 C.3     1  UNL1        0.0656
      9 C           3.8186   -0.7990    0.0000 C.2     1  UNL1        0.0820
     10 C           5.5507   -1.7990    0.0000 C.3     1  UNL1        0.0957
     11 C           3.8186   -1.7990    0.0000 C.2     1  UNL1        0.3392
     12 C           4.6847    1.4330    0.0000 C.2     1  UNL1       -0.0782
     13 C           6.1847    0.5670    0.0000 C.2     1  UNL1        0.1301
     14 C           2.9526   -0.2990    0.0000 C.2     1  UNL1       -0.0003
     15 C           5.1847    2.2990    0.0000 C.2     1  UNL1       -0.1019
     16 H           6.1613   -0.9067    0.0000 H       1  UNL1        0.0330
     17 H           5.7627   -0.2164    0.0000 H       1  UNL1        0.0330
     18 H           5.4946    0.0301    0.0000 H       1  UNL1        0.0449
     19 H           5.7627   -2.3816    0.0000 H       1  UNL1        0.0698
     20 H           6.1613   -1.6914    0.0000 H       1  UNL1        0.0698
     21 H           3.7320    0.7483    0.0000 H       1  UNL1        0.2107
     22 H           4.0646    1.4330    0.0000 H       1  UNL1        0.0574
     23 H           6.4946    0.0301    0.0000 H       1  UNL1        0.1033
     24 H           2.4157   -0.6090    0.0000 H       1  UNL1        0.0782
     25 H           5.8046    2.2990    0.0000 H       1  UNL1        0.0532
     26 H           4.8746    2.8360    0.0000 H       1  UNL1        0.0532
     27 H           2.0000    0.7483    0.0000 H       1  UNL1        0.1418
     28 H           3.0091    1.1156    0.0000 H       1  UNL1        0.1418
@<TRIPOS>BOND
     1     1     6    1
     2     1    21    1
     3     2    10    1
     4     2    11    1
     5     3    11    2
     6     4    13    2
     7     5    14    1
     8     5    27    1
     9     5    28    1
    10     6     7    1
    11     6     8    1
    12     6     9    1
    13     7    10    1
    14     7    16    1
    15     7    17    1
    16     8    12    1
    17     8    13    1
    18     8    18    1
    19     9    11    1
    20     9    14    2
    21    10    19    1
    22    10    20    1
    23    12    15    2
    24    12    22    1
    25    13    23    1
    26    14    24    1
    27    15    25    1
    28    15    26    1
