@<TRIPOS>MOLECULE
IMPHY009518
 74 79 0 0 0
SMALL
GASTEIGER

@<TRIPOS>ATOM
      1 O           5.6768   -2.1303    0.0000 O.3     1  UNL1       -0.3448
      2 O           4.0115   -1.0491    0.0000 O.3     1  UNL1       -0.3455
      3 O           8.4696    3.2071    0.0000 O.3     1  UNL1       -0.3908
      4 O          12.0842    3.2489    0.0000 O.3     1  UNL1       -0.3914
      5 O           2.4075   -3.2608    0.0000 O.3     1  UNL1       -0.3866
      6 C           6.7442    0.1045    0.0000 C.3     1  UNL1       -0.0233
      7 C           7.6102   -0.3955    0.0000 C.3     1  UNL1       -0.0295
      8 C           6.0072   -0.5626    0.0000 C.3     1  UNL1       -0.0015
      9 C           8.4763    0.1045    0.0000 C.3     1  UNL1       -0.0305
     10 C           6.4123   -1.4704    0.0000 C.3     1  UNL1        0.0660
     11 C           8.4763    1.1045    0.0000 C.3     1  UNL1       -0.0262
     12 C           7.4010   -1.3673    0.0000 C.3     1  UNL1       -0.0226
     13 C           6.7442    1.1045    0.0000 C.3     1  UNL1       -0.0467
     14 C           5.0248   -0.6693    0.0000 C.3     1  UNL1        0.0160
     15 C           7.6102    1.6045    0.0000 C.3     1  UNL1       -0.0486
     16 C           9.3702    1.6392    0.0000 C.3     1  UNL1        0.0181
     17 C           4.8210   -1.6362    0.0000 C.3     1  UNL1        0.1734
     18 C           5.8782    0.6045    0.0000 C.3     1  UNL1       -0.0590
     19 C           9.3702   -0.4302    0.0000 C.3     1  UNL1       -0.0311
     20 C          10.2763    1.1253    0.0000 C.2     1  UNL1       -0.0624
     21 C           9.3451    2.7239    0.0000 C.3     1  UNL1        0.0669
     22 C           4.7173   -2.6308    0.0000 C.3     1  UNL1        0.0044
     23 C           4.3537    0.0721    0.0000 C.3     1  UNL1       -0.0572
     24 C          10.2763    0.0837    0.0000 C.2     1  UNL1       -0.0838
     25 C           8.5003    2.1325    0.0000 C.3     1  UNL1       -0.0532
     26 C          11.2201    1.6606    0.0000 C.3     1  UNL1       -0.0049
     27 C          10.2763    3.2808    0.0000 C.3     1  UNL1        0.0004
     28 C           3.8041   -3.0384    0.0000 C.3     1  UNL1       -0.0172
     29 C          11.2201    2.7456    0.0000 C.3     1  UNL1        0.0613
     30 C           2.9946   -2.4513    0.0000 C.3     1  UNL1        0.0868
     31 C           3.0983   -1.4567    0.0000 C.3     1  UNL1        0.0794
     32 C           2.0000   -2.3476    0.0000 C.3     1  UNL1       -0.0339
     33 H           8.2973   -0.8960    0.0000 H       1  UNL1        0.0310
     34 H           5.6591    0.2129    0.0000 H       1  UNL1        0.0335
     35 H           8.4697   -0.7455    0.0000 H       1  UNL1        0.0310
     36 H           6.7570   -2.2473    0.0000 H       1  UNL1        0.0600
     37 H           9.2156    0.6852    0.0000 H       1  UNL1        0.0313
     38 H           7.4001   -1.9873    0.0000 H       1  UNL1        0.0293
     39 H           8.0175   -1.4334    0.0000 H       1  UNL1        0.0293
     40 H           6.5322    1.6871    0.0000 H       1  UNL1        0.0271
     41 H           6.1336    0.9968    0.0000 H       1  UNL1        0.0271
     42 H           4.4263   -0.8310    0.0000 H       1  UNL1        0.0354
     43 H           8.0088    2.0795    0.0000 H       1  UNL1        0.0268
     44 H           7.2117    2.0795    0.0000 H       1  UNL1        0.0268
     45 H           6.1882    1.1414    0.0000 H       1  UNL1        0.0235
     46 H           5.3412    0.9145    0.0000 H       1  UNL1        0.0235
     47 H           5.5682    0.0676    0.0000 H       1  UNL1        0.0235
     48 H           8.9656   -0.8999    0.0000 H       1  UNL1        0.0310
     49 H           9.7638   -0.9092    0.0000 H       1  UNL1        0.0310
     50 H           9.3344    3.3438    0.0000 H       1  UNL1        0.0603
     51 H           4.8678   -3.2323    0.0000 H       1  UNL1        0.0318
     52 H           5.3358   -2.5870    0.0000 H       1  UNL1        0.0318
     53 H           4.8134    0.4882    0.0000 H       1  UNL1        0.0234
     54 H           3.9377    0.5318    0.0000 H       1  UNL1        0.0234
     55 H           3.8940   -0.3439    0.0000 H       1  UNL1        0.0234
     56 H          10.8120   -0.2284    0.0000 H       1  UNL1        0.0572
     57 H           8.8062    2.6718    0.0000 H       1  UNL1        0.0239
     58 H           7.9610    2.4383    0.0000 H       1  UNL1        0.0239
     59 H           8.1945    1.5932    0.0000 H       1  UNL1        0.0239
     60 H          11.4291    1.0769    0.0000 H       1  UNL1        0.0335
     61 H          11.8309    1.7667    0.0000 H       1  UNL1        0.0335
     62 H          10.6699    3.7598    0.0000 H       1  UNL1        0.0315
     63 H           9.8717    3.7506    0.0000 H       1  UNL1        0.0315
     64 H           3.3585   -3.4694    0.0000 H       1  UNL1        0.0295
     65 H           4.1513   -3.5521    0.0000 H       1  UNL1        0.0295
     66 H          11.7576    2.4366    0.0000 H       1  UNL1        0.0597
     67 H           2.9478   -0.8552    0.0000 H       1  UNL1        0.0589
     68 H           2.4798   -1.5004    0.0000 H       1  UNL1        0.0589
     69 H           8.4577    3.8270    0.0000 H       1  UNL1        0.2098
     70 H           2.0643   -1.7310    0.0000 H       1  UNL1        0.0258
     71 H           1.3833   -2.2833    0.0000 H       1  UNL1        0.0258
     72 H           1.9357   -2.9643    0.0000 H       1  UNL1        0.0258
     73 H          12.6223    2.9410    0.0000 H       1  UNL1        0.2098
     74 H           2.6602   -3.8270    0.0000 H       1  UNL1        0.2102
@<TRIPOS>BOND
     1     1    10    1
     2    17     1    1
     3     2    17    1
     4     2    31    1
     5    21     3    1
     6     3    69    1
     7    29     4    1
     8     4    73    1
     9    30     5    1
    10     5    74    1
    11     6     7    1
    12     6     8    1
    13     6    13    1
    14     6    18    1
    15     7     9    1
    16     7    12    1
    17     7    33    1
    18     8    10    1
    19     8    14    1
    20     8    34    1
    21     9    11    1
    22     9    19    1
    23     9    35    1
    24    10    12    1
    25    10    36    1
    26    11    15    1
    27    11    16    1
    28    11    37    1
    29    12    38    1
    30    12    39    1
    31    13    15    1
    32    13    40    1
    33    13    41    1
    34    14    17    1
    35    14    23    1
    36    14    42    1
    37    15    43    1
    38    15    44    1
    39    16    20    1
    40    16    21    1
    41    16    25    1
    42    17    22    1
    43    18    45    1
    44    18    46    1
    45    18    47    1
    46    19    24    1
    47    19    48    1
    48    19    49    1
    49    20    24    2
    50    20    26    1
    51    21    27    1
    52    21    50    1
    53    22    28    1
    54    22    51    1
    55    22    52    1
    56    23    53    1
    57    23    54    1
    58    23    55    1
    59    24    56    1
    60    25    57    1
    61    25    58    1
    62    25    59    1
    63    26    29    1
    64    26    60    1
    65    26    61    1
    66    27    29    1
    67    27    62    1
    68    27    63    1
    69    28    30    1
    70    28    64    1
    71    28    65    1
    72    29    66    1
    73    30    31    1
    74    30    32    1
    75    31    67    1
    76    31    68    1
    77    32    70    1
    78    32    71    1
    79    32    72    1
