@<TRIPOS>MOLECULE
IMPHY006255
 52 55 0 0 0
SMALL
GASTEIGER

@<TRIPOS>ATOM
      1 O           5.1350   -1.3455    0.0000 O.3     1  UNL1       -0.3313
      2 O           6.8671   -1.3455    0.0000 O.3     1  UNL1       -0.4599
      3 O           5.1350   -4.3455    0.0000 O.3     1  UNL1       -0.3864
      4 O           3.4030   -3.3455    0.0000 O.3     1  UNL1       -0.3865
      5 O           6.8671   -3.3455    0.0000 O.3     1  UNL1       -0.3829
      6 O           2.5369   -1.8455    0.0000 O.3     1  UNL1       -0.3924
      7 O           8.6793    1.4592    0.0000 O.3     1  UNL1       -0.4512
      8 O           5.1350    1.6545    0.0000 O.3     1  UNL1       -0.5065
      9 O           8.9900   -1.1008    0.0000 O.2     1  UNL1       -0.2831
     10 O          13.2629    2.3865    0.0000 O.3     1  UNL1       -0.5033
     11 O          12.2629    4.1186    0.0000 O.3     1  UNL1       -0.5033
     12 C           5.1350   -3.3455    0.0000 C.3     1  UNL1        0.1152
     13 C           4.2690   -2.8455    0.0000 C.3     1  UNL1        0.1120
     14 C           6.0010   -2.8455    0.0000 C.3     1  UNL1        0.1454
     15 C           4.2690   -1.8455    0.0000 C.3     1  UNL1        0.1140
     16 C           6.0010   -1.8455    0.0000 C.3     1  UNL1        0.2308
     17 C           3.4030   -1.3455    0.0000 C.3     1  UNL1        0.0731
     18 C           6.8671   -0.3455    0.0000 C.ar    1  UNL1        0.1419
     19 C           7.7331    0.1545    0.0000 C.ar    1  UNL1        0.1094
     20 C           6.0010    0.1545    0.0000 C.ar    1  UNL1        0.0226
     21 C           7.7331    1.1545    0.0000 C.ar    1  UNL1        0.1465
     22 C           8.6793   -0.1503    0.0000 C.2     1  UNL1        0.2350
     23 C           6.0010    1.1545    0.0000 C.ar    1  UNL1        0.1239
     24 C           6.8671    1.6545    0.0000 C.ar    1  UNL1        0.0231
     25 C           9.2629    0.6545    0.0000 C.2     1  UNL1        0.1763
     26 C          10.2629    0.6545    0.0000 C.2     1  UNL1       -0.0082
     27 C          10.7629    1.5205    0.0000 C.ar    1  UNL1       -0.0178
     28 C          11.7629    1.5205    0.0000 C.ar    1  UNL1       -0.0093
     29 C          10.2629    2.3865    0.0000 C.ar    1  UNL1       -0.0508
     30 C          12.2629    2.3865    0.0000 C.ar    1  UNL1        0.1588
     31 C          10.7629    3.2526    0.0000 C.ar    1  UNL1       -0.0160
     32 C          11.7629    3.2526    0.0000 C.ar    1  UNL1        0.1582
     33 H           5.6720   -3.6555    0.0000 H       1  UNL1        0.0648
     34 H           4.2690   -3.4655    0.0000 H       1  UNL1        0.0647
     35 H           6.5380   -2.5355    0.0000 H       1  UNL1        0.0683
     36 H           4.2690   -1.2255    0.0000 H       1  UNL1        0.0647
     37 H           6.0010   -1.2255    0.0000 H       1  UNL1        0.1084
     38 H           3.8015   -0.8706    0.0000 H       1  UNL1        0.0584
     39 H           3.0044   -0.8706    0.0000 H       1  UNL1        0.0584
     40 H           4.5981   -4.6555    0.0000 H       1  UNL1        0.2100
     41 H           3.4030   -3.9655    0.0000 H       1  UNL1        0.2100
     42 H           6.8671   -3.9655    0.0000 H       1  UNL1        0.2102
     43 H           2.0000   -1.5355    0.0000 H       1  UNL1        0.2095
     44 H           5.4641   -0.1555    0.0000 H       1  UNL1        0.0691
     45 H           6.8671    2.2745    0.0000 H       1  UNL1        0.0691
     46 H          10.5729    0.1175    0.0000 H       1  UNL1        0.0661
     47 H           5.1350    2.2745    0.0000 H       1  UNL1        0.2921
     48 H          12.0729    0.9836    0.0000 H       1  UNL1        0.0661
     49 H           9.6429    2.3865    0.0000 H       1  UNL1        0.0625
     50 H          10.4529    3.7895    0.0000 H       1  UNL1        0.0655
     51 H          13.5729    1.8496    0.0000 H       1  UNL1        0.2923
     52 H          11.9529    4.6555    0.0000 H       1  UNL1        0.2923
@<TRIPOS>BOND
     1     1    15    1
     2     1    16    1
     3    16     2    1
     4     2    18    1
     5    12     3    1
     6     3    40    1
     7    13     4    1
     8     4    41    1
     9    14     5    1
    10     5    42    1
    11     6    17    1
    12     6    43    1
    13     7    21    1
    14     7    25    1
    15     8    23    1
    16     8    47    1
    17     9    22    2
    18    10    30    1
    19    10    51    1
    20    11    32    1
    21    11    52    1
    22    12    13    1
    23    12    14    1
    24    12    33    1
    25    13    15    1
    26    13    34    1
    27    14    16    1
    28    14    35    1
    29    15    17    1
    30    15    36    1
    31    16    37    1
    32    17    38    1
    33    17    39    1
    34    18    19   ar
    35    18    20   ar
    36    19    21   ar
    37    19    22    1
    38    20    23   ar
    39    20    44    1
    40    21    24   ar
    41    22    25    1
    42    23    24   ar
    43    24    45    1
    44    25    26    2
    45    26    27    1
    46    26    46    1
    47    27    28   ar
    48    27    29   ar
    49    28    30   ar
    50    28    48    1
    51    29    31   ar
    52    29    49    1
    53    30    32   ar
    54    31    32   ar
    55    31    50    1
