@<TRIPOS>MOLECULE
IMPHY005078
 40 42 0 0 0
SMALL
GASTEIGER

@<TRIPOS>ATOM
      1 O           2.8100   -1.5894    0.0000 O.3     1  UNL1       -0.2301
      2 O           2.2264   -0.7846    0.0000 O.3     1  UNL1       -0.2280
      3 O           6.3543   -1.7846    0.0000 O.2     1  UNL1       -0.2923
      4 C           4.6223    0.2154    0.0000 C.3     1  UNL1        0.0065
      5 C           3.7562   -0.2846    0.0000 C.3     1  UNL1        0.0300
      6 C           4.6062    1.2569    0.0000 C.3     1  UNL1       -0.0337
      7 C           3.7562   -1.2846    0.0000 C.3     1  UNL1        0.1070
      8 C           2.8100    0.0201    0.0000 C.3     1  UNL1        0.1050
      9 C           5.4883   -0.2846    0.0000 C.2     1  UNL1       -0.0022
     10 C           4.6223   -1.7846    0.0000 C.3     1  UNL1        0.0398
     11 C           5.5043    1.7846    0.0000 C.3     1  UNL1       -0.0462
     12 C           3.7562    0.7154    0.0000 C.3     1  UNL1       -0.0548
     13 C           5.4883   -1.2846    0.0000 C.2     1  UNL1        0.1620
     14 C           6.4063    1.2638    0.0000 C.3     1  UNL1       -0.0338
     15 C           6.3983    0.2222    0.0000 C.2     1  UNL1       -0.0770
     16 C           3.7345    1.7468    0.0000 C.3     1  UNL1       -0.0616
     17 C           2.0000    0.6065    0.0000 C.3     1  UNL1       -0.0327
     18 C           3.1174    0.9717    0.0000 C.3     1  UNL1       -0.0327
     19 H           4.4924   -0.7096    0.0000 H       1  UNL1        0.0364
     20 H           4.6002    1.8768    0.0000 H       1  UNL1        0.0307
     21 H           3.6663   -2.1299    0.0000 H       1  UNL1        0.0636
     22 H           4.2238   -2.2596    0.0000 H       1  UNL1        0.0371
     23 H           5.0208   -2.2596    0.0000 H       1  UNL1        0.0371
     24 H           5.9016    2.2606    0.0000 H       1  UNL1        0.0271
     25 H           5.1033    2.2575    0.0000 H       1  UNL1        0.0271
     26 H           4.0662    1.2523    0.0000 H       1  UNL1        0.0238
     27 H           3.2193    1.0254    0.0000 H       1  UNL1        0.0238
     28 H           3.4462    0.1784    0.0000 H       1  UNL1        0.0238
     29 H           7.0164    1.1530    0.0000 H       1  UNL1        0.0308
     30 H           6.6199    1.8459    0.0000 H       1  UNL1        0.0308
     31 H           6.9316   -0.0940    0.0000 H       1  UNL1        0.0576
     32 H           4.0382    2.2873    0.0000 H       1  UNL1        0.0233
     33 H           3.1940    2.0506    0.0000 H       1  UNL1        0.0233
     34 H           3.4307    1.2063    0.0000 H       1  UNL1        0.0233
     35 H           2.3636    1.1087    0.0000 H       1  UNL1        0.0258
     36 H           1.4978    0.9700    0.0000 H       1  UNL1        0.0258
     37 H           1.6364    0.1043    0.0000 H       1  UNL1        0.0258
     38 H           3.7074    0.7811    0.0000 H       1  UNL1        0.0258
     39 H           3.3080    1.5617    0.0000 H       1  UNL1        0.0258
     40 H           2.5274    1.1623    0.0000 H       1  UNL1        0.0258
@<TRIPOS>BOND
     1     1     2    1
     2     1     7    1
     3     2     8    1
     4     3    13    2
     5     4     5    1
     6     4     6    1
     7     4     9    1
     8     4    12    1
     9     5     7    1
    10     5     8    1
    11     5    19    1
    12     6    11    1
    13     6    16    1
    14     6    20    1
    15     7    10    1
    16     7    21    1
    17     8    17    1
    18     8    18    1
    19     9    13    1
    20     9    15    2
    21    10    13    1
    22    10    22    1
    23    10    23    1
    24    11    14    1
    25    11    24    1
    26    11    25    1
    27    12    26    1
    28    12    27    1
    29    12    28    1
    30    14    15    1
    31    14    29    1
    32    14    30    1
    33    15    31    1
    34    16    32    1
    35    16    33    1
    36    16    34    1
    37    17    35    1
    38    17    36    1
    39    17    37    1
    40    18    38    1
    41    18    39    1
    42    18    40    1
