@<TRIPOS>MOLECULE
IMPHY004809
 67 67 0 0 0
SMALL
GASTEIGER

@<TRIPOS>ATOM
      1 O           4.5981    2.0000    0.0000 O.3     1  UNL1       -0.4612
      2 O           2.0000   -0.5000    0.0000 O.2     1  UNL1       -0.2837
      3 O           2.0000   -2.5000    0.0000 O.2     1  UNL1       -0.4911
      4 O           6.3301    2.0000    0.0000 O.2     1  UNL1       -0.2512
      5 O           5.4641   -2.5000    0.0000 O.2     1  UNL1       -0.2878
      6 C           8.0622    1.0000    0.0000 C.3     1  UNL1       -0.0531
      7 C           8.9282    0.5000    0.0000 C.3     1  UNL1       -0.0531
      8 C           7.1962    0.5000    0.0000 C.3     1  UNL1       -0.0529
      9 C           9.7942    1.0000    0.0000 C.3     1  UNL1       -0.0531
     10 C           6.3301    1.0000    0.0000 C.3     1  UNL1       -0.0497
     11 C          10.6603    0.5000    0.0000 C.3     1  UNL1       -0.0531
     12 C           5.4641    0.5000    0.0000 C.3     1  UNL1       -0.0154
     13 C          11.5263    1.0000    0.0000 C.3     1  UNL1       -0.0531
     14 C           4.5981    1.0000    0.0000 C.3     1  UNL1        0.1071
     15 C          12.3923    0.5000    0.0000 C.3     1  UNL1       -0.0531
     16 C          13.2583    1.0000    0.0000 C.3     1  UNL1       -0.0531
     17 C           3.7320    0.5000    0.0000 C.3     1  UNL1        0.0135
     18 C          14.1244    0.5000    0.0000 C.3     1  UNL1       -0.0533
     19 C           3.7320   -0.5000    0.0000 C.2     1  UNL1        0.0101
     20 C          14.9904    1.0000    0.0000 C.3     1  UNL1       -0.0559
     21 C           2.8660   -1.0000    0.0000 C.2     1  UNL1        0.2237
     22 C           4.5981   -1.0000    0.0000 C.2     1  UNL1       -0.0078
     23 C          15.8564    0.5000    0.0000 C.3     1  UNL1       -0.0653
     24 C           5.4641    2.5000    0.0000 C.2     1  UNL1        0.3042
     25 C           2.8660   -2.0000    0.0000 C.2     1  UNL1        0.1704
     26 C           4.5981   -2.0000    0.0000 C.2     1  UNL1        0.1829
     27 C           3.7320   -2.5000    0.0000 C.2     1  UNL1        0.0306
     28 C           5.4641    3.5000    0.0000 C.3     1  UNL1        0.0332
     29 C           2.0000   -3.5000    0.0000 C.3     1  UNL1        0.0790
     30 H           8.4607    1.4750    0.0000 H       1  UNL1        0.0265
     31 H           7.6636    1.4750    0.0000 H       1  UNL1        0.0265
     32 H           8.5297    0.0251    0.0000 H       1  UNL1        0.0265
     33 H           9.3267    0.0251    0.0000 H       1  UNL1        0.0265
     34 H           6.7976    0.0251    0.0000 H       1  UNL1        0.0265
     35 H           7.5947    0.0251    0.0000 H       1  UNL1        0.0265
     36 H          10.1928    1.4750    0.0000 H       1  UNL1        0.0265
     37 H           9.3957    1.4750    0.0000 H       1  UNL1        0.0265
     38 H           6.7287    1.4750    0.0000 H       1  UNL1        0.0266
     39 H           5.9316    1.4750    0.0000 H       1  UNL1        0.0266
     40 H          10.2617    0.0251    0.0000 H       1  UNL1        0.0265
     41 H          11.0588    0.0251    0.0000 H       1  UNL1        0.0265
     42 H           5.0656    0.0251    0.0000 H       1  UNL1        0.0301
     43 H           5.8626    0.0251    0.0000 H       1  UNL1        0.0301
     44 H          11.9248    1.4750    0.0000 H       1  UNL1        0.0265
     45 H          11.1278    1.4750    0.0000 H       1  UNL1        0.0265
     46 H           5.1350    1.3100    0.0000 H       1  UNL1        0.0737
     47 H          11.9938    0.0251    0.0000 H       1  UNL1        0.0265
     48 H          12.7908    0.0251    0.0000 H       1  UNL1        0.0265
     49 H          13.6569    1.4750    0.0000 H       1  UNL1        0.0265
     50 H          12.8598    1.4750    0.0000 H       1  UNL1        0.0265
     51 H           3.5200    1.0826    0.0000 H       1  UNL1        0.0350
     52 H           3.1215    0.3923    0.0000 H       1  UNL1        0.0350
     53 H          13.7258    0.0251    0.0000 H       1  UNL1        0.0265
     54 H          14.5229    0.0251    0.0000 H       1  UNL1        0.0265
     55 H          15.3889    1.4750    0.0000 H       1  UNL1        0.0263
     56 H          14.5919    1.4750    0.0000 H       1  UNL1        0.0263
     57 H           5.1350   -0.6900    0.0000 H       1  UNL1        0.0660
     58 H          15.5464   -0.0369    0.0000 H       1  UNL1        0.0230
     59 H          16.3933    0.1900    0.0000 H       1  UNL1        0.0230
     60 H          16.1664    1.0369    0.0000 H       1  UNL1        0.0230
     61 H           3.7320   -3.1200    0.0000 H       1  UNL1        0.0694
     62 H           6.0841    3.5000    0.0000 H       1  UNL1        0.0342
     63 H           5.4641    4.1200    0.0000 H       1  UNL1        0.0342
     64 H           4.8441    3.5000    0.0000 H       1  UNL1        0.0342
     65 H           1.3800   -3.5000    0.0000 H       1  UNL1        0.0660
     66 H           2.0000   -4.1200    0.0000 H       1  UNL1        0.0660
     67 H           2.6200   -3.5000    0.0000 H       1  UNL1        0.0660
@<TRIPOS>BOND
     1     1    14    1
     2     1    24    1
     3     2    21    2
     4     3    25    1
     5     3    29    1
     6     4    24    2
     7     5    26    2
     8     6     7    1
     9     6     8    1
    10     6    30    1
    11     6    31    1
    12     7     9    1
    13     7    32    1
    14     7    33    1
    15     8    10    1
    16     8    34    1
    17     8    35    1
    18     9    11    1
    19     9    36    1
    20     9    37    1
    21    10    12    1
    22    10    38    1
    23    10    39    1
    24    11    13    1
    25    11    40    1
    26    11    41    1
    27    12    14    1
    28    12    42    1
    29    12    43    1
    30    13    15    1
    31    13    44    1
    32    13    45    1
    33    14    17    1
    34    14    46    1
    35    15    16    1
    36    15    47    1
    37    15    48    1
    38    16    18    1
    39    16    49    1
    40    16    50    1
    41    17    19    1
    42    17    51    1
    43    17    52    1
    44    18    20    1
    45    18    53    1
    46    18    54    1
    47    19    21    1
    48    19    22    2
    49    20    23    1
    50    20    55    1
    51    20    56    1
    52    21    25    1
    53    22    26    1
    54    22    57    1
    55    23    58    1
    56    23    59    1
    57    23    60    1
    58    24    28    1
    59    25    27    2
    60    26    27    1
    61    27    61    1
    62    28    62    1
    63    28    63    1
    64    28    64    1
    65    29    65    1
    66    29    66    1
    67    29    67    1
