@<TRIPOS>MOLECULE
IMPHY009635
 54 56 0 0 0
SMALL
GASTEIGER

@<TRIPOS>ATOM
      1 O           4.8903   -0.0623    0.0000 O.3     1  UNL1       -0.3713
      2 O           8.0626   -1.0805    0.0000 O.3     1  UNL1       -0.3946
      3 O           2.5878   -2.9645    0.0000 O.3     1  UNL1       -0.4914
      4 O           5.6070    3.7741    0.0000 O.3     1  UNL1       -0.4913
      5 O           9.0710    3.7741    0.0000 O.3     1  UNL1       -0.4913
      6 O           3.7634   -4.5825    0.0000 O.3     1  UNL1       -0.5033
      7 O           7.3390    4.7741    0.0000 O.3     1  UNL1       -0.5009
      8 C           6.3684   -0.7204    0.0000 C.3     1  UNL1        0.0178
      9 C           6.4730    0.2741    0.0000 C.3     1  UNL1       -0.0060
     10 C           5.3903   -0.9283    0.0000 C.3     1  UNL1        0.0890
     11 C           5.5594    0.6808    0.0000 C.3     1  UNL1        0.0520
     12 C           7.3390    0.7741    0.0000 C.3     1  UNL1       -0.0221
     13 C           7.1116   -1.3896    0.0000 C.3     1  UNL1        0.0500
     14 C           4.9836   -1.8419    0.0000 C.ar    1  UNL1       -0.0149
     15 C           7.3390    1.7741    0.0000 C.ar    1  UNL1       -0.0399
     16 C           3.9890   -1.9464    0.0000 C.ar    1  UNL1       -0.0107
     17 C           5.5714   -2.6509    0.0000 C.ar    1  UNL1       -0.0524
     18 C           8.2050    2.2741    0.0000 C.ar    1  UNL1       -0.0129
     19 C           6.4730    2.2741    0.0000 C.ar    1  UNL1       -0.0129
     20 C           3.5823   -2.8600    0.0000 C.ar    1  UNL1        0.1616
     21 C           5.1646   -3.5644    0.0000 C.ar    1  UNL1       -0.0162
     22 C           6.4730    3.2741    0.0000 C.ar    1  UNL1        0.1652
     23 C           8.2050    3.2741    0.0000 C.ar    1  UNL1        0.1652
     24 C           4.1701   -3.6690    0.0000 C.ar    1  UNL1        0.1585
     25 C           7.3390    3.7741    0.0000 C.ar    1  UNL1        0.2010
     26 C           2.0000   -2.1555    0.0000 C.3     1  UNL1        0.0790
     27 C           4.7409    3.2741    0.0000 C.3     1  UNL1        0.0790
     28 C           9.9371    3.2741    0.0000 C.3     1  UNL1        0.0790
     29 H           6.9473   -0.4982    0.0000 H       1  UNL1        0.0355
     30 H           6.9930   -0.0636    0.0000 H       1  UNL1        0.0330
     31 H           4.7711   -0.9608    0.0000 H       1  UNL1        0.0650
     32 H           5.8694    1.2178    0.0000 H       1  UNL1        0.0563
     33 H           5.0578    1.0453    0.0000 H       1  UNL1        0.0563
     34 H           7.5511    0.1915    0.0000 H       1  UNL1        0.0317
     35 H           7.9496    0.8818    0.0000 H       1  UNL1        0.0317
     36 H           6.6230   -1.7713    0.0000 H       1  UNL1        0.0561
     37 H           7.4027   -1.9370    0.0000 H       1  UNL1        0.0561
     38 H           3.6246   -1.4448    0.0000 H       1  UNL1        0.0659
     39 H           6.1880   -2.5861    0.0000 H       1  UNL1        0.0622
     40 H           8.5234   -1.4954    0.0000 H       1  UNL1        0.2094
     41 H           8.7420    1.9641    0.0000 H       1  UNL1        0.0658
     42 H           5.9360    1.9641    0.0000 H       1  UNL1        0.0658
     43 H           5.5290   -4.0660    0.0000 H       1  UNL1        0.0655
     44 H           4.1278   -5.0841    0.0000 H       1  UNL1        0.2923
     45 H           7.8759    5.0841    0.0000 H       1  UNL1        0.2924
     46 H           2.5016   -1.7910    0.0000 H       1  UNL1        0.0660
     47 H           1.6356   -1.6539    0.0000 H       1  UNL1        0.0660
     48 H           1.4984   -2.5199    0.0000 H       1  UNL1        0.0660
     49 H           4.4309    3.8110    0.0000 H       1  UNL1        0.0660
     50 H           4.2040    2.9641    0.0000 H       1  UNL1        0.0660
     51 H           5.0509    2.7372    0.0000 H       1  UNL1        0.0660
     52 H           9.6271    2.7372    0.0000 H       1  UNL1        0.0660
     53 H          10.4740    2.9641    0.0000 H       1  UNL1        0.0660
     54 H          10.2471    3.8110    0.0000 H       1  UNL1        0.0660
@<TRIPOS>BOND
     1     1    10    1
     2     1    11    1
     3     2    13    1
     4     2    40    1
     5     3    20    1
     6     3    26    1
     7     4    22    1
     8     4    27    1
     9     5    23    1
    10     5    28    1
    11     6    24    1
    12     6    44    1
    13     7    25    1
    14     7    45    1
    15     8     9    1
    16     8    10    1
    17     8    13    1
    18     8    29    1
    19     9    11    1
    20     9    12    1
    21     9    30    1
    22    10    14    1
    23    10    31    1
    24    11    32    1
    25    11    33    1
    26    12    15    1
    27    12    34    1
    28    12    35    1
    29    13    36    1
    30    13    37    1
    31    14    16   ar
    32    14    17   ar
    33    15    18   ar
    34    15    19   ar
    35    16    20   ar
    36    16    38    1
    37    17    21   ar
    38    17    39    1
    39    18    23   ar
    40    18    41    1
    41    19    22   ar
    42    19    42    1
    43    20    24   ar
    44    21    24   ar
    45    21    43    1
    46    22    25   ar
    47    23    25   ar
    48    26    46    1
    49    26    47    1
    50    26    48    1
    51    27    49    1
    52    27    50    1
    53    27    51    1
    54    28    52    1
    55    28    53    1
    56    28    54    1
