@<TRIPOS>MOLECULE
IMPHY017184
 38 37 0 0 0
SMALL
GASTEIGER

@<TRIPOS>ATOM
      1 O           7.1962    0.2500    0.0000 O.3     1  UNL1       -0.4644
      2 O           8.0622   -1.2500    0.0000 O.2     1  UNL1       -0.2505
      3 C           3.7320    0.2500    0.0000 C.3     1  UNL1       -0.0506
      4 C           2.8660   -0.2500    0.0000 C.3     1  UNL1       -0.0467
      5 C           4.5981   -0.2500    0.0000 C.3     1  UNL1       -0.0497
      6 C           5.4641    0.2500    0.0000 C.3     1  UNL1       -0.0185
      7 C           6.3301   -0.2500    0.0000 C.3     1  UNL1        0.0925
      8 C           2.0000    0.2500    0.0000 C.3     1  UNL1       -0.0627
      9 C           2.8660   -1.2500    0.0000 C.3     1  UNL1       -0.0627
     10 C           8.9282    0.2500    0.0000 C.3     1  UNL1        0.0534
     11 C           9.7942   -0.2500    0.0000 C.3     1  UNL1       -0.0432
     12 C           8.0622   -0.2500    0.0000 C.2     1  UNL1        0.3099
     13 C           8.9282    1.2500    0.0000 C.3     1  UNL1       -0.0523
     14 C          10.6603    0.2500    0.0000 C.3     1  UNL1       -0.0645
     15 H           4.1306    0.7249    0.0000 H       1  UNL1        0.0268
     16 H           3.3335    0.7249    0.0000 H       1  UNL1        0.0268
     17 H           2.8660    0.3700    0.0000 H       1  UNL1        0.0295
     18 H           4.1996   -0.7249    0.0000 H       1  UNL1        0.0266
     19 H           4.9966   -0.7249    0.0000 H       1  UNL1        0.0266
     20 H           5.8626    0.7249    0.0000 H       1  UNL1        0.0298
     21 H           5.0656    0.7249    0.0000 H       1  UNL1        0.0298
     22 H           5.9316   -0.7249    0.0000 H       1  UNL1        0.0697
     23 H           6.7287   -0.7249    0.0000 H       1  UNL1        0.0697
     24 H           9.4651    0.5600    0.0000 H       1  UNL1        0.0410
     25 H           2.3100    0.7869    0.0000 H       1  UNL1        0.0232
     26 H           1.4631    0.5600    0.0000 H       1  UNL1        0.0232
     27 H           1.6900   -0.2869    0.0000 H       1  UNL1        0.0232
     28 H           2.2460   -1.2500    0.0000 H       1  UNL1        0.0232
     29 H           2.8660   -1.8700    0.0000 H       1  UNL1        0.0232
     30 H           3.4860   -1.2500    0.0000 H       1  UNL1        0.0232
     31 H           9.3957   -0.7249    0.0000 H       1  UNL1        0.0270
     32 H          10.1928   -0.7249    0.0000 H       1  UNL1        0.0270
     33 H           9.5482    1.2500    0.0000 H       1  UNL1        0.0238
     34 H           8.9282    1.8700    0.0000 H       1  UNL1        0.0238
     35 H           8.3082    1.2500    0.0000 H       1  UNL1        0.0238
     36 H          10.9703   -0.2869    0.0000 H       1  UNL1        0.0230
     37 H          11.1972    0.5600    0.0000 H       1  UNL1        0.0230
     38 H          10.3503    0.7869    0.0000 H       1  UNL1        0.0230
@<TRIPOS>BOND
     1     1     7    1
     2     1    12    1
     3     2    12    2
     4     3     4    1
     5     3     5    1
     6     3    15    1
     7     3    16    1
     8     4     8    1
     9     4     9    1
    10     4    17    1
    11     5     6    1
    12     5    18    1
    13     5    19    1
    14     6     7    1
    15     6    20    1
    16     6    21    1
    17     7    22    1
    18     7    23    1
    19     8    25    1
    20     8    26    1
    21     8    27    1
    22     9    28    1
    23     9    29    1
    24     9    30    1
    25    10    11    1
    26    10    12    1
    27    10    13    1
    28    10    24    1
    29    11    14    1
    30    11    31    1
    31    11    32    1
    32    13    33    1
    33    13    34    1
    34    13    35    1
    35    14    36    1
    36    14    37    1
    37    14    38    1
