@<TRIPOS>MOLECULE
IMPHY015790
 19 19 0 0 0
SMALL
GASTEIGER

@<TRIPOS>ATOM
      1 O           3.7601   -0.2020    0.0000 O.3     1  UNL1       -0.4542
      2 O           2.0000    0.0767    0.0000 O.2     1  UNL1       -0.2508
      3 C           4.5691    0.3858    0.0000 C.3     1  UNL1        0.1291
      4 C           4.2601    1.3368    0.0000 C.3     1  UNL1        0.0007
      5 C           3.2601    1.3368    0.0000 C.3     1  UNL1        0.0489
      6 C           5.5202    0.6948    0.0000 C.3     1  UNL1       -0.0211
      7 C           2.9511    0.3858    0.0000 C.2     1  UNL1        0.3080
      8 C           5.1569   -0.4233    0.0000 C.2     1  UNL1       -0.0483
      9 C           4.7501   -1.3368    0.0000 C.2     1  UNL1       -0.0989
     10 H           4.8665    1.4657    0.0000 H       1  UNL1        0.0312
     11 H           4.1953    1.9534    0.0000 H       1  UNL1        0.0312
     12 H           3.3249    1.9534    0.0000 H       1  UNL1        0.0379
     13 H           2.6536    1.4657    0.0000 H       1  UNL1        0.0379
     14 H           5.7117    0.1051    0.0000 H       1  UNL1        0.0271
     15 H           6.1098    0.8864    0.0000 H       1  UNL1        0.0271
     16 H           5.3286    1.2844    0.0000 H       1  UNL1        0.0271
     17 H           5.7735   -0.3585    0.0000 H       1  UNL1        0.0605
     18 H           4.1335   -1.4016    0.0000 H       1  UNL1        0.0533
     19 H           5.1146   -1.8384    0.0000 H       1  UNL1        0.0533
@<TRIPOS>BOND
     1     1     3    1
     2     1     7    1
     3     2     7    2
     4     3     4    1
     5     3     6    1
     6     3     8    1
     7     4     5    1
     8     4    10    1
     9     4    11    1
    10     5     7    1
    11     5    12    1
    12     5    13    1
    13     6    14    1
    14     6    15    1
    15     6    16    1
    16     8     9    2
    17     8    17    1
    18     9    18    1
    19     9    19    1
