@<TRIPOS>MOLECULE
IMPHY005238
 104 108 0 0 0
SMALL
GASTEIGER

@<TRIPOS>ATOM
      1 O           8.5881   -2.5266    0.0000 O.3     1  UNL1       -0.3451
      2 O           7.6885    3.0392    0.0000 O.3     1  UNL1       -0.3915
      3 O          12.2330   -1.4957    0.0000 O.3     1  UNL1       -0.3912
      4 O           6.8560   -2.5266    0.0000 O.3     1  UNL1       -0.3405
      5 O           8.5881   -4.5266    0.0000 O.3     1  UNL1       -0.3841
      6 O           6.8560   -5.5266    0.0000 O.3     1  UNL1       -0.3864
      7 O           5.1240   -4.5266    0.0000 O.3     1  UNL1       -0.3865
      8 O           4.2579   -3.0266    0.0000 O.3     1  UNL1       -0.3924
      9 C           7.7000    0.0392    0.0000 C.3     1  UNL1       -0.0206
     10 C           8.5641    0.5425    0.0000 C.3     1  UNL1       -0.0269
     11 C           6.8321    0.5359    0.0000 C.3     1  UNL1       -0.0206
     12 C           9.4761    0.0392    0.0000 C.3     1  UNL1       -0.0228
     13 C           6.8282    1.5358    0.0000 C.3     1  UNL1       -0.0026
     14 C           9.4881   -1.0024    0.0000 C.3     1  UNL1       -0.0014
     15 C           7.6880   -1.0024    0.0000 C.3     1  UNL1       -0.0200
     16 C           8.5603    1.5425    0.0000 C.3     1  UNL1       -0.0227
     17 C           8.5881   -1.5266    0.0000 C.3     1  UNL1        0.0662
     18 C           7.6923    2.0392    0.0000 C.3     1  UNL1        0.0594
     19 C           5.8871    0.2275    0.0000 C.3     1  UNL1       -0.0462
     20 C          10.4257   -1.5485    0.0000 C.3     1  UNL1       -0.0032
     21 C           5.8808    1.8369    0.0000 C.3     1  UNL1       -0.0145
     22 C          10.4007    0.6069    0.0000 C.3     1  UNL1       -0.0446
     23 C           5.3004    1.0300    0.0000 C.3     1  UNL1       -0.0456
     24 C           7.0602   -0.7293    0.0000 C.3     1  UNL1       -0.0587
     25 C           6.4937   -0.4051    0.0000 C.3     1  UNL1       -0.0587
     26 C           9.4645    1.0391    0.0000 C.3     1  UNL1       -0.0589
     27 C          11.3632   -1.0024    0.0000 C.3     1  UNL1        0.0607
     28 C          11.3506    0.0826    0.0000 C.3     1  UNL1       -0.0258
     29 C          10.9257   -2.4145    0.0000 C.3     1  UNL1       -0.0571
     30 C           9.9257   -2.4145    0.0000 C.3     1  UNL1       -0.0571
     31 C           5.5665    2.7862    0.0000 C.2     1  UNL1       -0.0728
     32 C           7.7220   -3.0266    0.0000 C.3     1  UNL1        0.1882
     33 C           6.2315    3.5331    0.0000 C.3     1  UNL1       -0.0435
     34 C           4.5872    2.9887    0.0000 C.2     1  UNL1       -0.0810
     35 C           7.7220   -4.0266    0.0000 C.3     1  UNL1        0.1341
     36 C           4.2729    3.9380    0.0000 C.3     1  UNL1       -0.0161
     37 C           6.8560   -4.5266    0.0000 C.3     1  UNL1        0.1141
     38 C           5.9900   -3.0266    0.0000 C.3     1  UNL1        0.1130
     39 C           5.9900   -4.0266    0.0000 C.3     1  UNL1        0.1119
     40 C           3.2936    4.1405    0.0000 C.2     1  UNL1       -0.0815
     41 C           5.1240   -2.5266    0.0000 C.3     1  UNL1        0.0730
     42 C           2.9793    5.0898    0.0000 C.2     1  UNL1       -0.0793
     43 C           2.0000    5.2922    0.0000 C.3     1  UNL1       -0.0440
     44 C           3.6443    5.8366    0.0000 C.3     1  UNL1       -0.0440
     45 H           9.2953    0.9760    0.0000 H       1  UNL1        0.0312
     46 H           6.7350    2.3807    0.0000 H       1  UNL1        0.0337
     47 H           9.4881   -1.8524    0.0000 H       1  UNL1        0.0337
     48 H           7.0784   -0.8892    0.0000 H       1  UNL1        0.0296
     49 H           7.4722   -1.5836    0.0000 H       1  UNL1        0.0296
     50 H           9.1713    1.4372    0.0000 H       1  UNL1        0.0293
     51 H           8.7701    2.1260    0.0000 H       1  UNL1        0.0293
     52 H           9.1256   -1.8356    0.0000 H       1  UNL1        0.0600
     53 H           7.1542    2.3471    0.0000 H       1  UNL1        0.0596
     54 H           5.3509   -0.0838    0.0000 H       1  UNL1        0.0271
     55 H           6.1403   -0.3384    0.0000 H       1  UNL1        0.0271
     56 H           6.3166    2.2780    0.0000 H       1  UNL1        0.0349
     57 H          10.7888    1.0904    0.0000 H       1  UNL1        0.0271
     58 H           9.9907    1.0719    0.0000 H       1  UNL1        0.0271
     59 H           4.8379    1.4429    0.0000 H       1  UNL1        0.0271
     60 H           4.8411    0.6135    0.0000 H       1  UNL1        0.0271
     61 H           6.5837   -0.3326    0.0000 H       1  UNL1        0.0235
     62 H           6.6635   -1.2058    0.0000 H       1  UNL1        0.0235
     63 H           7.5366   -1.1260    0.0000 H       1  UNL1        0.0235
     64 H           5.9103   -0.1953    0.0000 H       1  UNL1        0.0235
     65 H           6.2839   -0.9886    0.0000 H       1  UNL1        0.0235
     66 H           7.0771   -0.6149    0.0000 H       1  UNL1        0.0235
     67 H          10.0845    1.0463    0.0000 H       1  UNL1        0.0235
     68 H           9.4574    1.6591    0.0000 H       1  UNL1        0.0235
     69 H           8.8446    1.0320    0.0000 H       1  UNL1        0.0235
     70 H          11.3668   -1.6224    0.0000 H       1  UNL1        0.0599
     71 H          11.9627   -0.0165    0.0000 H       1  UNL1        0.0290
     72 H          11.5529    0.6686    0.0000 H       1  UNL1        0.0290
     73 H           9.3887   -2.1045    0.0000 H       1  UNL1        0.0236
     74 H           9.6157   -2.9514    0.0000 H       1  UNL1        0.0236
     75 H          10.4626   -2.7245    0.0000 H       1  UNL1        0.0236
     76 H          10.3887   -2.7245    0.0000 H       1  UNL1        0.0236
     77 H          11.2357   -2.9514    0.0000 H       1  UNL1        0.0236
     78 H          11.4626   -2.1045    0.0000 H       1  UNL1        0.0236
     79 H           8.2242    3.3512    0.0000 H       1  UNL1        0.2098
     80 H           7.7220   -2.4066    0.0000 H       1  UNL1        0.0937
     81 H          12.7676   -1.1815    0.0000 H       1  UNL1        0.2098
     82 H           6.6946    3.1208    0.0000 H       1  UNL1        0.0274
     83 H           6.6438    3.9962    0.0000 H       1  UNL1        0.0274
     84 H           5.7684    3.9454    0.0000 H       1  UNL1        0.0274
     85 H           4.1750    2.5256    0.0000 H       1  UNL1        0.0575
     86 H           7.7220   -4.6466    0.0000 H       1  UNL1        0.0671
     87 H           4.8864    4.0277    0.0000 H       1  UNL1        0.0350
     88 H           4.2911    4.5578    0.0000 H       1  UNL1        0.0350
     89 H           6.3191   -4.8366    0.0000 H       1  UNL1        0.0648
     90 H           5.9900   -2.4066    0.0000 H       1  UNL1        0.0647
     91 H           5.4530   -3.7166    0.0000 H       1  UNL1        0.0647
     92 H           8.5881   -5.1466    0.0000 H       1  UNL1        0.2101
     93 H           2.8813    3.6774    0.0000 H       1  UNL1        0.0575
     94 H           5.5225   -2.0517    0.0000 H       1  UNL1        0.0584
     95 H           4.7254   -2.0517    0.0000 H       1  UNL1        0.0584
     96 H           6.3191   -5.8366    0.0000 H       1  UNL1        0.2100
     97 H           5.1240   -5.1466    0.0000 H       1  UNL1        0.2100
     98 H           3.7210   -2.7166    0.0000 H       1  UNL1        0.2095
     99 H           4.1073    5.4244    0.0000 H       1  UNL1        0.0274
    100 H           4.0565    6.2997    0.0000 H       1  UNL1        0.0274
    101 H           3.1812    6.2489    0.0000 H       1  UNL1        0.0274
    102 H           2.1255    5.8994    0.0000 H       1  UNL1        0.0274
    103 H           1.3928    5.4177    0.0000 H       1  UNL1        0.0274
    104 H           1.8745    4.6851    0.0000 H       1  UNL1        0.0274
@<TRIPOS>BOND
     1    17     1    1
     2    32     1    1
     3    18     2    1
     4     2    79    1
     5    27     3    1
     6     3    81    1
     7     4    32    1
     8     4    38    1
     9    35     5    1
    10     5    92    1
    11    37     6    1
    12     6    96    1
    13    39     7    1
    14     7    97    1
    15     8    41    1
    16     8    98    1
    17     9    10    1
    18     9    11    1
    19     9    15    1
    20     9    24    1
    21    10    12    1
    22    10    16    1
    23    10    45    1
    24    11    13    1
    25    11    19    1
    26    11    25    1
    27    12    14    1
    28    12    22    1
    29    12    26    1
    30    13    18    1
    31    13    21    1
    32    13    46    1
    33    14    17    1
    34    14    20    1
    35    14    47    1
    36    15    17    1
    37    15    48    1
    38    15    49    1
    39    16    18    1
    40    16    50    1
    41    16    51    1
    42    17    52    1
    43    18    53    1
    44    19    23    1
    45    19    54    1
    46    19    55    1
    47    20    27    1
    48    20    29    1
    49    20    30    1
    50    21    23    1
    51    21    31    1
    52    21    56    1
    53    22    28    1
    54    22    57    1
    55    22    58    1
    56    23    59    1
    57    23    60    1
    58    24    61    1
    59    24    62    1
    60    24    63    1
    61    25    64    1
    62    25    65    1
    63    25    66    1
    64    26    67    1
    65    26    68    1
    66    26    69    1
    67    27    28    1
    68    27    70    1
    69    28    71    1
    70    28    72    1
    71    29    76    1
    72    29    77    1
    73    29    78    1
    74    30    73    1
    75    30    74    1
    76    30    75    1
    77    31    33    1
    78    31    34    2
    79    32    35    1
    80    32    80    1
    81    33    82    1
    82    33    83    1
    83    33    84    1
    84    34    36    1
    85    34    85    1
    86    35    37    1
    87    35    86    1
    88    36    40    1
    89    36    87    1
    90    36    88    1
    91    37    39    1
    92    37    89    1
    93    38    39    1
    94    38    41    1
    95    38    90    1
    96    39    91    1
    97    40    42    2
    98    40    93    1
    99    41    94    1
   100    41    95    1
   101    42    43    1
   102    42    44    1
   103    43   102    1
   104    43   103    1
   105    43   104    1
   106    44    99    1
   107    44   100    1
   108    44   101    1
