@<TRIPOS>MOLECULE
IMPHY009380
 59 63 0 0 0
SMALL
GASTEIGER

@<TRIPOS>ATOM
      1 O           8.1301   -1.1661    0.0000 O.3     1  UNL1       -0.5061
      2 N           5.5321   -2.6661    0.0000 N.3     1  UNL1       -0.2980
      3 N           8.9962    0.3339    0.0000 N.3     1  UNL1       -0.2980
      4 N           4.6660    0.8339    0.0000 N.pl3   1  UNL1       -0.2988
      5 N           5.5321    2.3339    0.0000 N.ar    1  UNL1       -0.2200
      6 N           4.6660    3.8339    0.0000 N.ar    1  UNL1       -0.2353
      7 C           4.6185   -2.2594    0.0000 C.3     1  UNL1       -0.0007
      8 C           5.4275   -3.6606    0.0000 C.3     1  UNL1       -0.0007
      9 C           9.1007   -0.6606    0.0000 C.3     1  UNL1       -0.0007
     10 C           9.9097    0.7406    0.0000 C.3     1  UNL1       -0.0007
     11 C           3.9494   -3.0025    0.0000 C.3     1  UNL1       -0.0390
     12 C           4.4494   -3.8686    0.0000 C.3     1  UNL1       -0.0390
     13 C          10.0788   -0.8685    0.0000 C.3     1  UNL1       -0.0390
     14 C          10.5788   -0.0025    0.0000 C.3     1  UNL1       -0.0390
     15 C           6.3981   -2.1661    0.0000 C.3     1  UNL1        0.0276
     16 C           8.1301    0.8339    0.0000 C.3     1  UNL1        0.0276
     17 C           6.3981   -1.1661    0.0000 C.ar    1  UNL1        0.0101
     18 C           7.2641    0.3339    0.0000 C.ar    1  UNL1        0.0101
     19 C           7.2641   -0.6661    0.0000 C.ar    1  UNL1        0.1257
     20 C           5.5321   -0.6661    0.0000 C.ar    1  UNL1       -0.0326
     21 C           6.3981    0.8339    0.0000 C.ar    1  UNL1       -0.0326
     22 C           5.5321    0.3339    0.0000 C.ar    1  UNL1        0.0332
     23 C           4.6660    1.8339    0.0000 C.ar    1  UNL1        0.1339
     24 C           3.8000    2.3339    0.0000 C.ar    1  UNL1        0.0404
     25 C           3.8000    3.3339    0.0000 C.ar    1  UNL1        0.0760
     26 C           2.9061    1.7992    0.0000 C.ar    1  UNL1       -0.0493
     27 C           5.5321    3.3339    0.0000 C.ar    1  UNL1        0.1187
     28 C           2.9061    3.8686    0.0000 C.ar    1  UNL1       -0.0356
     29 C           2.0000    2.3131    0.0000 C.ar    1  UNL1       -0.0610
     30 C           2.0000    3.3547    0.0000 C.ar    1  UNL1       -0.0597
     31 H           5.4923   -4.2772    0.0000 H       1  UNL1        0.0427
     32 H           6.0475   -3.6606    0.0000 H       1  UNL1        0.0427
     33 H           4.9285   -1.7224    0.0000 H       1  UNL1        0.0427
     34 H           4.1169   -1.8950    0.0000 H       1  UNL1        0.0427
     35 H           8.4807   -0.6606    0.0000 H       1  UNL1        0.0427
     36 H          10.4113    1.1050    0.0000 H       1  UNL1        0.0427
     37 H           9.5997    1.2776    0.0000 H       1  UNL1        0.0427
     38 H           9.0359   -1.2772    0.0000 H       1  UNL1        0.0427
     39 H           3.8830   -4.1207    0.0000 H       1  UNL1        0.0278
     40 H           4.6410   -4.4582    0.0000 H       1  UNL1        0.0278
     41 H           3.5345   -2.5418    0.0000 H       1  UNL1        0.0278
     42 H           3.4478   -3.3670    0.0000 H       1  UNL1        0.0278
     43 H          11.0804   -0.3669    0.0000 H       1  UNL1        0.0278
     44 H          10.9937    0.4582    0.0000 H       1  UNL1        0.0278
     45 H           9.8872   -1.4582    0.0000 H       1  UNL1        0.0278
     46 H          10.6452   -1.1207    0.0000 H       1  UNL1        0.0278
     47 H           6.6101   -2.7487    0.0000 H       1  UNL1        0.0477
     48 H           7.0087   -2.0584    0.0000 H       1  UNL1        0.0477
     49 H           8.5287    1.3088    0.0000 H       1  UNL1        0.0477
     50 H           7.7316    1.3088    0.0000 H       1  UNL1        0.0477
     51 H           4.9951   -0.9761    0.0000 H       1  UNL1        0.0640
     52 H           6.3981    1.4539    0.0000 H       1  UNL1        0.0640
     53 H           4.1291    0.5239    0.0000 H       1  UNL1        0.1536
     54 H           8.1301   -1.7861    0.0000 H       1  UNL1        0.2922
     55 H           2.9132    1.1793    0.0000 H       1  UNL1        0.0625
     56 H           6.0690    3.6439    0.0000 H       1  UNL1        0.1048
     57 H           2.9132    4.4885    0.0000 H       1  UNL1        0.0639
     58 H           1.4643    2.0010    0.0000 H       1  UNL1        0.0618
     59 H           1.4643    3.6668    0.0000 H       1  UNL1        0.0618
@<TRIPOS>BOND
     1     1    19    1
     2     1    54    1
     3     2     7    1
     4     2     8    1
     5     2    15    1
     6     3     9    1
     7     3    10    1
     8     3    16    1
     9     4    22    1
    10     4    23    1
    11     4    53    1
    12     5    23   ar
    13     5    27   ar
    14     6    25   ar
    15     6    27   ar
    16     7    11    1
    17     7    33    1
    18     7    34    1
    19     8    12    1
    20     8    31    1
    21     8    32    1
    22     9    13    1
    23     9    35    1
    24     9    38    1
    25    10    14    1
    26    10    36    1
    27    10    37    1
    28    11    12    1
    29    11    41    1
    30    11    42    1
    31    12    39    1
    32    12    40    1
    33    13    14    1
    34    13    45    1
    35    13    46    1
    36    14    43    1
    37    14    44    1
    38    15    17    1
    39    15    47    1
    40    15    48    1
    41    16    18    1
    42    16    49    1
    43    16    50    1
    44    17    19   ar
    45    17    20   ar
    46    18    19   ar
    47    18    21   ar
    48    20    22   ar
    49    20    51    1
    50    21    22   ar
    51    21    52    1
    52    23    24   ar
    53    24    25   ar
    54    24    26   ar
    55    25    28   ar
    56    26    29   ar
    57    26    55    1
    58    27    56    1
    59    28    30   ar
    60    28    57    1
    61    29    30   ar
    62    29    58    1
    63    30    59    1
