@<TRIPOS>MOLECULE
IMPHY013025
 46 50 0 0 0
SMALL
GASTEIGER

@<TRIPOS>ATOM
      1 O           6.5041   -1.4274    0.0000 O.3     1  UNL1       -0.3713
      2 O           7.8483    1.6212    0.0000 O.3     1  UNL1       -0.3946
      3 O          10.9619   -1.2159    0.0000 O.3     1  UNL1       -0.4526
      4 O          10.9619   -2.8254    0.0000 O.3     1  UNL1       -0.4526
      5 O           2.9460    3.0206    0.0000 O.3     1  UNL1       -0.4526
      6 O           2.0000    1.7186    0.0000 O.3     1  UNL1       -0.4526
      7 C           7.3131   -0.0261    0.0000 C.3     1  UNL1        0.0178
      8 C           6.3349    0.1818    0.0000 C.3     1  UNL1       -0.0060
      9 C           7.4176   -1.0206    0.0000 C.3     1  UNL1        0.0890
     10 C           5.8349   -0.6842    0.0000 C.3     1  UNL1        0.0520
     11 C           5.9282    1.0953    0.0000 C.3     1  UNL1       -0.0222
     12 C           8.0562    0.6430    0.0000 C.3     1  UNL1        0.0500
     13 C           8.2836   -1.5206    0.0000 C.ar    1  UNL1       -0.0149
     14 C           4.9337    1.1999    0.0000 C.ar    1  UNL1       -0.0433
     15 C           9.1496   -1.0206    0.0000 C.ar    1  UNL1       -0.0105
     16 C           8.2836   -2.5206    0.0000 C.ar    1  UNL1       -0.0524
     17 C           4.5269    2.1134    0.0000 C.ar    1  UNL1       -0.0130
     18 C           4.3459    0.3908    0.0000 C.ar    1  UNL1       -0.0549
     19 C          10.0157   -1.5206    0.0000 C.ar    1  UNL1        0.1666
     20 C           9.1496   -3.0206    0.0000 C.ar    1  UNL1       -0.0158
     21 C          10.0157   -2.5206    0.0000 C.ar    1  UNL1        0.1662
     22 C           3.5324    2.2179    0.0000 C.ar    1  UNL1        0.1665
     23 C           3.3514    0.4954    0.0000 C.ar    1  UNL1       -0.0159
     24 C           2.9446    1.4089    0.0000 C.ar    1  UNL1        0.1662
     25 C          11.5455   -2.0206    0.0000 C.3     1  UNL1        0.2332
     26 C           2.0009    2.7126    0.0000 C.3     1  UNL1        0.2332
     27 H           7.1526    0.5728    0.0000 H       1  UNL1        0.0355
     28 H           6.7251    0.6636    0.0000 H       1  UNL1        0.0330
     29 H           7.9376   -0.6830    0.0000 H       1  UNL1        0.0650
     30 H           5.3333   -0.3198    0.0000 H       1  UNL1        0.0563
     31 H           5.4201   -1.1450    0.0000 H       1  UNL1        0.0563
     32 H           6.5298    1.2453    0.0000 H       1  UNL1        0.0317
     33 H           5.8849    1.7138    0.0000 H       1  UNL1        0.0317
     34 H           8.3848    0.1172    0.0000 H       1  UNL1        0.0561
     35 H           8.6311    0.8753    0.0000 H       1  UNL1        0.0561
     36 H           9.1496   -0.4006    0.0000 H       1  UNL1        0.0659
     37 H           7.7467   -2.8306    0.0000 H       1  UNL1        0.0622
     38 H           4.8914    2.6150    0.0000 H       1  UNL1        0.0658
     39 H           8.3091    2.0360    0.0000 H       1  UNL1        0.2094
     40 H           4.5981   -0.1756    0.0000 H       1  UNL1        0.0621
     41 H           9.1496   -3.6406    0.0000 H       1  UNL1        0.0655
     42 H           2.9869   -0.0062    0.0000 H       1  UNL1        0.0655
     43 H          12.0064   -2.4354    0.0000 H       1  UNL1        0.1166
     44 H          12.0064   -1.6059    0.0000 H       1  UNL1        0.1166
     45 H           1.8718    3.3190    0.0000 H       1  UNL1        0.1166
     46 H           1.3842    2.6480    0.0000 H       1  UNL1        0.1166
@<TRIPOS>BOND
     1     1     9    1
     2     1    10    1
     3     2    12    1
     4     2    39    1
     5     3    19    1
     6     3    25    1
     7     4    21    1
     8     4    25    1
     9     5    22    1
    10     5    26    1
    11     6    24    1
    12     6    26    1
    13     7     8    1
    14     7     9    1
    15     7    12    1
    16     7    27    1
    17     8    10    1
    18     8    11    1
    19     8    28    1
    20     9    13    1
    21     9    29    1
    22    10    30    1
    23    10    31    1
    24    11    14    1
    25    11    32    1
    26    11    33    1
    27    12    34    1
    28    12    35    1
    29    13    15   ar
    30    13    16   ar
    31    14    17   ar
    32    14    18   ar
    33    15    19   ar
    34    15    36    1
    35    16    20   ar
    36    16    37    1
    37    17    22   ar
    38    17    38    1
    39    18    23   ar
    40    18    40    1
    41    19    21   ar
    42    20    21   ar
    43    20    41    1
    44    22    24   ar
    45    23    24   ar
    46    23    42    1
    47    25    43    1
    48    25    44    1
    49    26    45    1
    50    26    46    1
