@<TRIPOS>MOLECULE
IMPHY013170
 91 90 0 0 0
SMALL
GASTEIGER

@<TRIPOS>ATOM
      1 O          24.5167   -1.2500    0.0000 O.2     1  UNL1       -0.2971
      2 C          13.2583    0.2500    0.0000 C.3     1  UNL1       -0.0531
      3 C          14.1244   -0.2500    0.0000 C.3     1  UNL1       -0.0531
      4 C          12.3923   -0.2500    0.0000 C.3     1  UNL1       -0.0531
      5 C          14.9904    0.2500    0.0000 C.3     1  UNL1       -0.0531
      6 C          11.5263    0.2500    0.0000 C.3     1  UNL1       -0.0531
      7 C          15.8564   -0.2500    0.0000 C.3     1  UNL1       -0.0531
      8 C          10.6603   -0.2500    0.0000 C.3     1  UNL1       -0.0531
      9 C          16.7224    0.2500    0.0000 C.3     1  UNL1       -0.0531
     10 C           9.7942    0.2500    0.0000 C.3     1  UNL1       -0.0531
     11 C          17.5885   -0.2500    0.0000 C.3     1  UNL1       -0.0531
     12 C           8.9282   -0.2500    0.0000 C.3     1  UNL1       -0.0531
     13 C          18.4545    0.2500    0.0000 C.3     1  UNL1       -0.0531
     14 C           8.0622    0.2500    0.0000 C.3     1  UNL1       -0.0531
     15 C          19.3205   -0.2500    0.0000 C.3     1  UNL1       -0.0531
     16 C           7.1962   -0.2500    0.0000 C.3     1  UNL1       -0.0531
     17 C          20.1865    0.2500    0.0000 C.3     1  UNL1       -0.0531
     18 C           6.3301    0.2500    0.0000 C.3     1  UNL1       -0.0531
     19 C          21.0526   -0.2500    0.0000 C.3     1  UNL1       -0.0530
     20 C           5.4641   -0.2500    0.0000 C.3     1  UNL1       -0.0531
     21 C          21.9186    0.2500    0.0000 C.3     1  UNL1       -0.0527
     22 C           4.5981    0.2500    0.0000 C.3     1  UNL1       -0.0531
     23 C          22.7846   -0.2500    0.0000 C.3     1  UNL1       -0.0464
     24 C           3.7320   -0.2500    0.0000 C.3     1  UNL1       -0.0533
     25 C          23.6506    0.2500    0.0000 C.3     1  UNL1        0.0061
     26 C           2.8660    0.2500    0.0000 C.3     1  UNL1       -0.0559
     27 C          24.5167   -0.2500    0.0000 C.2     1  UNL1        0.1359
     28 C          25.3827    0.2500    0.0000 C.3     1  UNL1        0.0119
     29 C           2.0000   -0.2500    0.0000 C.3     1  UNL1       -0.0653
     30 C          26.2487   -0.2500    0.0000 C.3     1  UNL1       -0.0560
     31 C          25.3827    1.2500    0.0000 C.3     1  UNL1       -0.0560
     32 H          13.6569    0.7249    0.0000 H       1  UNL1        0.0265
     33 H          12.8598    0.7249    0.0000 H       1  UNL1        0.0265
     34 H          13.7258   -0.7249    0.0000 H       1  UNL1        0.0265
     35 H          14.5229   -0.7249    0.0000 H       1  UNL1        0.0265
     36 H          11.9938   -0.7249    0.0000 H       1  UNL1        0.0265
     37 H          12.7908   -0.7249    0.0000 H       1  UNL1        0.0265
     38 H          15.3889    0.7249    0.0000 H       1  UNL1        0.0265
     39 H          14.5919    0.7249    0.0000 H       1  UNL1        0.0265
     40 H          11.9248    0.7249    0.0000 H       1  UNL1        0.0265
     41 H          11.1278    0.7249    0.0000 H       1  UNL1        0.0265
     42 H          15.4579   -0.7249    0.0000 H       1  UNL1        0.0265
     43 H          16.2549   -0.7249    0.0000 H       1  UNL1        0.0265
     44 H          10.2617   -0.7249    0.0000 H       1  UNL1        0.0265
     45 H          11.0588   -0.7249    0.0000 H       1  UNL1        0.0265
     46 H          17.1210    0.7249    0.0000 H       1  UNL1        0.0265
     47 H          16.3239    0.7249    0.0000 H       1  UNL1        0.0265
     48 H          10.1928    0.7249    0.0000 H       1  UNL1        0.0265
     49 H           9.3957    0.7249    0.0000 H       1  UNL1        0.0265
     50 H          17.1899   -0.7249    0.0000 H       1  UNL1        0.0265
     51 H          17.9870   -0.7249    0.0000 H       1  UNL1        0.0265
     52 H           8.5297   -0.7249    0.0000 H       1  UNL1        0.0265
     53 H           9.3267   -0.7249    0.0000 H       1  UNL1        0.0265
     54 H          18.8530    0.7249    0.0000 H       1  UNL1        0.0265
     55 H          18.0560    0.7249    0.0000 H       1  UNL1        0.0265
     56 H           8.4607    0.7249    0.0000 H       1  UNL1        0.0265
     57 H           7.6636    0.7249    0.0000 H       1  UNL1        0.0265
     58 H          18.9220   -0.7249    0.0000 H       1  UNL1        0.0265
     59 H          19.7190   -0.7249    0.0000 H       1  UNL1        0.0265
     60 H           6.7976   -0.7249    0.0000 H       1  UNL1        0.0265
     61 H           7.5947   -0.7249    0.0000 H       1  UNL1        0.0265
     62 H          20.5851    0.7249    0.0000 H       1  UNL1        0.0265
     63 H          19.7880    0.7249    0.0000 H       1  UNL1        0.0265
     64 H           6.7287    0.7249    0.0000 H       1  UNL1        0.0265
     65 H           5.9316    0.7249    0.0000 H       1  UNL1        0.0265
     66 H          20.6540   -0.7249    0.0000 H       1  UNL1        0.0265
     67 H          21.4511   -0.7249    0.0000 H       1  UNL1        0.0265
     68 H           5.0656   -0.7249    0.0000 H       1  UNL1        0.0265
     69 H           5.8626   -0.7249    0.0000 H       1  UNL1        0.0265
     70 H          22.3171    0.7249    0.0000 H       1  UNL1        0.0265
     71 H          21.5201    0.7249    0.0000 H       1  UNL1        0.0265
     72 H           4.9966    0.7249    0.0000 H       1  UNL1        0.0265
     73 H           4.1996    0.7249    0.0000 H       1  UNL1        0.0265
     74 H          22.3861   -0.7249    0.0000 H       1  UNL1        0.0269
     75 H          23.1831   -0.7249    0.0000 H       1  UNL1        0.0269
     76 H           3.3335   -0.7249    0.0000 H       1  UNL1        0.0265
     77 H           4.1306   -0.7249    0.0000 H       1  UNL1        0.0265
     78 H          24.0492    0.7249    0.0000 H       1  UNL1        0.0342
     79 H          23.2521    0.7249    0.0000 H       1  UNL1        0.0342
     80 H           3.2646    0.7249    0.0000 H       1  UNL1        0.0263
     81 H           2.4675    0.7249    0.0000 H       1  UNL1        0.0263
     82 H          25.9196    0.5600    0.0000 H       1  UNL1        0.0372
     83 H           1.6900    0.2869    0.0000 H       1  UNL1        0.0230
     84 H           1.4631   -0.5600    0.0000 H       1  UNL1        0.0230
     85 H           2.3100   -0.7869    0.0000 H       1  UNL1        0.0230
     86 H          25.9387   -0.7869    0.0000 H       1  UNL1        0.0236
     87 H          26.7856   -0.5600    0.0000 H       1  UNL1        0.0236
     88 H          26.5587    0.2869    0.0000 H       1  UNL1        0.0236
     89 H          26.0027    1.2500    0.0000 H       1  UNL1        0.0236
     90 H          25.3827    1.8700    0.0000 H       1  UNL1        0.0236
     91 H          24.7627    1.2500    0.0000 H       1  UNL1        0.0236
@<TRIPOS>BOND
     1     1    27    2
     2     2     3    1
     3     2     4    1
     4     2    32    1
     5     2    33    1
     6     3     5    1
     7     3    34    1
     8     3    35    1
     9     4     6    1
    10     4    36    1
    11     4    37    1
    12     5     7    1
    13     5    38    1
    14     5    39    1
    15     6     8    1
    16     6    40    1
    17     6    41    1
    18     7     9    1
    19     7    42    1
    20     7    43    1
    21     8    10    1
    22     8    44    1
    23     8    45    1
    24     9    11    1
    25     9    46    1
    26     9    47    1
    27    10    12    1
    28    10    48    1
    29    10    49    1
    30    11    13    1
    31    11    50    1
    32    11    51    1
    33    12    14    1
    34    12    52    1
    35    12    53    1
    36    13    15    1
    37    13    54    1
    38    13    55    1
    39    14    16    1
    40    14    56    1
    41    14    57    1
    42    15    17    1
    43    15    58    1
    44    15    59    1
    45    16    18    1
    46    16    60    1
    47    16    61    1
    48    17    19    1
    49    17    62    1
    50    17    63    1
    51    18    20    1
    52    18    64    1
    53    18    65    1
    54    19    21    1
    55    19    66    1
    56    19    67    1
    57    20    22    1
    58    20    68    1
    59    20    69    1
    60    21    23    1
    61    21    70    1
    62    21    71    1
    63    22    24    1
    64    22    72    1
    65    22    73    1
    66    23    25    1
    67    23    74    1
    68    23    75    1
    69    24    26    1
    70    24    76    1
    71    24    77    1
    72    25    27    1
    73    25    78    1
    74    25    79    1
    75    26    29    1
    76    26    80    1
    77    26    81    1
    78    27    28    1
    79    28    30    1
    80    28    31    1
    81    28    82    1
    82    29    83    1
    83    29    84    1
    84    29    85    1
    85    30    86    1
    86    30    87    1
    87    30    88    1
    88    31    89    1
    89    31    90    1
    90    31    91    1
