@<TRIPOS>MOLECULE
IMPHY006043
 90 95 0 0 0
SMALL
GASTEIGER

@<TRIPOS>ATOM
      1 O           6.7852    2.0980    0.0000 O.3     1  UNL1       -0.3585
      2 O           9.5679    1.2289    0.0000 O.3     1  UNL1       -0.4581
      3 O           5.1720    0.6954    0.0000 O.3     1  UNL1       -0.3888
      4 O           5.1643    2.6954    0.0000 O.3     1  UNL1       -0.3858
      5 O           8.6084    3.7522    0.0000 O.3     1  UNL1       -0.4464
      6 O           6.8896    4.4341    0.0000 O.3     1  UNL1       -0.4659
      7 O           5.3930    3.5623    0.0000 O.2     1  UNL1       -0.2475
      8 O          10.4016    2.7814    0.0000 O.2     1  UNL1       -0.2466
      9 O           6.8671   -3.4948    0.0000 O.2     1  UNL1       -0.4574
     10 O           5.0597   -2.4420    0.0000 O.2     1  UNL1       -0.2888
     11 O          10.3396    3.8063    0.0000 O.2     1  UNL1       -0.2456
     12 O           5.1350   -3.4948    0.0000 O.3     1  UNL1       -0.3313
     13 O           6.8671   -5.4948    0.0000 O.3     1  UNL1       -0.3829
     14 O           5.1350   -6.4948    0.0000 O.3     1  UNL1       -0.3864
     15 O           3.4030   -5.4948    0.0000 O.3     1  UNL1       -0.3865
     16 O           2.5369   -3.9948    0.0000 O.3     1  UNL1       -0.3924
     17 C           7.7681    1.2054    0.0000 C.3     1  UNL1        0.0468
     18 C           6.9040    0.7021    0.0000 C.3     1  UNL1        0.0055
     19 C           7.7643    2.2054    0.0000 C.3     1  UNL1        0.0603
     20 C           6.8920   -0.3395    0.0000 C.3     1  UNL1       -0.0123
     21 C           6.8963    2.7020    0.0000 C.3     1  UNL1        0.2007
     22 C           8.6801    0.7021    0.0000 C.3     1  UNL1        0.1123
     23 C           6.0361    1.1987    0.0000 C.3     1  UNL1        0.0884
     24 C           7.7920   -0.8638    0.0000 C.3     1  UNL1       -0.0068
     25 C           7.1879    1.4068    0.0000 C.3     1  UNL1        0.0591
     26 C           6.0322    2.1987    0.0000 C.3     1  UNL1        0.1210
     27 C           8.6921   -0.3395    0.0000 C.3     1  UNL1       -0.0079
     28 C           8.6397    2.7527    0.0000 C.3     1  UNL1        0.2059
     29 C           5.9421   -0.8638    0.0000 C.3     1  UNL1        0.0198
     30 C           5.9079   -0.1621    0.0000 C.3     1  UNL1       -0.0583
     31 C           7.8046   -1.9487    0.0000 C.2     1  UNL1       -0.0237
     32 C           6.3930    3.5661    0.0000 C.2     1  UNL1        0.3423
     33 C           9.5476    2.2611    0.0000 C.2     1  UNL1        0.3491
     34 C           5.9295   -1.9487    0.0000 C.2     1  UNL1        0.1979
     35 C           6.8671   -2.4948    0.0000 C.2     1  UNL1        0.1654
     36 C           8.6744   -2.4420    0.0000 C.3     1  UNL1       -0.0397
     37 C           9.4584    4.2790    0.0000 C.2     1  UNL1        0.3327
     38 C           6.3863    5.2982    0.0000 C.3     1  UNL1        0.0818
     39 C           6.0010   -3.9948    0.0000 C.3     1  UNL1        0.2309
     40 C           9.4272    5.2785    0.0000 C.2     1  UNL1        0.0212
     41 C           6.0010   -4.9948    0.0000 C.3     1  UNL1        0.1454
     42 C           5.1350   -5.4948    0.0000 C.3     1  UNL1        0.1152
     43 C           4.2690   -3.9948    0.0000 C.3     1  UNL1        0.1140
     44 C           4.2690   -4.9948    0.0000 C.3     1  UNL1        0.1120
     45 C          10.2771    5.8053    0.0000 C.2     1  UNL1       -0.0690
     46 C           3.4030   -3.4948    0.0000 C.3     1  UNL1        0.0731
     47 C          10.2459    6.8048    0.0000 C.3     1  UNL1       -0.0435
     48 C          11.1584    5.3326    0.0000 C.3     1  UNL1       -0.0435
     49 H           6.1696    0.2742    0.0000 H       1  UNL1        0.0339
     50 H           8.6143    2.2087    0.0000 H       1  UNL1        0.0384
     51 H           9.4212    0.2858    0.0000 H       1  UNL1        0.0740
     52 H           5.4980    1.5066    0.0000 H       1  UNL1        0.0623
     53 H           8.5314   -1.2831    0.0000 H       1  UNL1        0.0353
     54 H           6.5857    1.2592    0.0000 H       1  UNL1        0.0567
     55 H           7.1589    0.7874    0.0000 H       1  UNL1        0.0567
     56 H           6.0298    2.8187    0.0000 H       1  UNL1        0.0654
     57 H           8.9079   -0.9207    0.0000 H       1  UNL1        0.0307
     58 H           9.3017   -0.2264    0.0000 H       1  UNL1        0.0307
     59 H           8.0928    3.0447    0.0000 H       1  UNL1        0.0857
     60 H           5.7398   -0.2777    0.0000 H       1  UNL1        0.0352
     61 H           5.3300   -0.9628    0.0000 H       1  UNL1        0.0352
     62 H           6.0179    0.4481    0.0000 H       1  UNL1        0.0235
     63 H           5.2977   -0.0520    0.0000 H       1  UNL1        0.0235
     64 H           5.7978   -0.7722    0.0000 H       1  UNL1        0.0235
     65 H           4.6339    1.0033    0.0000 H       1  UNL1        0.2099
     66 H           4.6286    2.3833    0.0000 H       1  UNL1        0.2100
     67 H           8.3686   -2.9813    0.0000 H       1  UNL1        0.0276
     68 H           9.2138   -2.7479    0.0000 H       1  UNL1        0.0276
     69 H           8.9803   -1.9027    0.0000 H       1  UNL1        0.0276
     70 H           6.9220    5.6102    0.0000 H       1  UNL1        0.0661
     71 H           6.0742    5.8339    0.0000 H       1  UNL1        0.0661
     72 H           5.8506    4.9861    0.0000 H       1  UNL1        0.0661
     73 H           6.0010   -3.3748    0.0000 H       1  UNL1        0.1084
     74 H           8.8808    5.5716    0.0000 H       1  UNL1        0.0688
     75 H           6.0010   -5.6148    0.0000 H       1  UNL1        0.0683
     76 H           4.5981   -5.8048    0.0000 H       1  UNL1        0.0648
     77 H           4.2690   -3.3748    0.0000 H       1  UNL1        0.0647
     78 H           3.7320   -4.6848    0.0000 H       1  UNL1        0.0647
     79 H           6.8671   -6.1148    0.0000 H       1  UNL1        0.2102
     80 H           3.8015   -3.0199    0.0000 H       1  UNL1        0.0584
     81 H           3.0044   -3.0199    0.0000 H       1  UNL1        0.0584
     82 H          10.8656    6.8242    0.0000 H       1  UNL1        0.0274
     83 H          10.2265    7.4245    0.0000 H       1  UNL1        0.0274
     84 H           9.6262    6.7854    0.0000 H       1  UNL1        0.0274
     85 H          10.8653    4.7863    0.0000 H       1  UNL1        0.0274
     86 H          11.7047    5.0396    0.0000 H       1  UNL1        0.0274
     87 H          11.4514    5.8790    0.0000 H       1  UNL1        0.0274
     88 H           4.5981   -6.8048    0.0000 H       1  UNL1        0.2100
     89 H           3.4030   -6.1148    0.0000 H       1  UNL1        0.2100
     90 H           2.0000   -3.6848    0.0000 H       1  UNL1        0.2095
@<TRIPOS>BOND
     1     1    21    1
     2     1    25    1
     3     2    22    1
     4     2    33    1
     5    23     3    1
     6     3    65    1
     7    26     4    1
     8     4    66    1
     9    28     5    1
    10     5    37    1
    11     6    32    1
    12     6    38    1
    13     7    32    2
    14     8    33    2
    15     9    35    1
    16    39     9    1
    17    10    34    2
    18    11    37    2
    19    12    39    1
    20    12    43    1
    21    41    13    1
    22    13    79    1
    23    42    14    1
    24    14    88    1
    25    44    15    1
    26    15    89    1
    27    16    46    1
    28    16    90    1
    29    17    18    1
    30    17    19    1
    31    17    22    1
    32    17    25    1
    33    18    20    1
    34    18    23    1
    35    18    49    1
    36    19    21    1
    37    19    28    1
    38    19    50    1
    39    20    24    1
    40    20    29    1
    41    20    30    1
    42    21    26    1
    43    21    32    1
    44    22    27    1
    45    22    51    1
    46    23    26    1
    47    23    52    1
    48    24    27    1
    49    24    31    1
    50    24    53    1
    51    25    54    1
    52    25    55    1
    53    26    56    1
    54    27    57    1
    55    27    58    1
    56    28    33    1
    57    28    59    1
    58    29    34    1
    59    29    60    1
    60    29    61    1
    61    30    62    1
    62    30    63    1
    63    30    64    1
    64    31    35    2
    65    31    36    1
    66    34    35    1
    67    36    67    1
    68    36    68    1
    69    36    69    1
    70    37    40    1
    71    38    70    1
    72    38    71    1
    73    38    72    1
    74    39    41    1
    75    39    73    1
    76    40    45    2
    77    40    74    1
    78    41    42    1
    79    41    75    1
    80    42    44    1
    81    42    76    1
    82    43    44    1
    83    43    46    1
    84    43    77    1
    85    44    78    1
    86    45    47    1
    87    45    48    1
    88    46    80    1
    89    46    81    1
    90    47    82    1
    91    47    83    1
    92    47    84    1
    93    48    85    1
    94    48    86    1
    95    48    87    1
