@<TRIPOS>MOLECULE
IMPHY009048
 64 67 0 0 0
SMALL
GASTEIGER

@<TRIPOS>ATOM
      1 O           7.7925   -2.0159    0.0000 O.3     1  UNL1       -0.4608
      2 O           5.1804    1.5125    0.0000 O.3     1  UNL1       -0.4586
      3 O           6.9464    2.5503    0.0000 O.3     1  UNL1       -0.3758
      4 O           4.3198    1.0156    0.0000 O.2     1  UNL1       -0.2941
      5 O           2.5381    0.0052    0.0000 O.3     1  UNL1       -0.3843
      6 O           9.5140   -2.0487    0.0000 O.2     1  UNL1       -0.2508
      7 O           6.0291    3.0224    0.0000 O.2     1  UNL1       -0.2512
      8 C           6.9343   -0.5190    0.0000 C.3     1  UNL1        0.0158
      9 C           6.0682   -0.0190    0.0000 C.3     1  UNL1        0.0201
     10 C           5.2022   -0.5190    0.0000 C.3     1  UNL1        0.0388
     11 C           7.8443   -0.0122    0.0000 C.3     1  UNL1       -0.0168
     12 C           5.2022   -1.5190    0.0000 C.3     1  UNL1       -0.0224
     13 C           6.9343   -1.5190    0.0000 C.3     1  UNL1        0.1094
     14 C           6.0522    1.0225    0.0000 C.3     1  UNL1        0.1336
     15 C           6.0682   -2.0190    0.0000 C.3     1  UNL1       -0.0112
     16 C           7.8523    1.0294    0.0000 C.3     1  UNL1       -0.0101
     17 C           6.9502    1.5503    0.0000 C.3     1  UNL1        0.0983
     18 C           4.3083   -2.0537    0.0000 C.3     1  UNL1       -0.0373
     19 C           6.9343    0.4810    0.0000 C.3     1  UNL1       -0.0555
     20 C           4.3083    0.0157    0.0000 C.2     1  UNL1        0.1680
     21 C           8.6836   -0.5404    0.0000 C.3     1  UNL1        0.0487
     22 C           5.2022    0.4810    0.0000 C.3     1  UNL1       -0.0521
     23 C           3.4022   -1.5398    0.0000 C.3     1  UNL1       -0.0170
     24 C           3.4022   -0.4982    0.0000 C.3     1  UNL1        0.1138
     25 C           8.7202    1.5261    0.0000 C.3     1  UNL1       -0.0597
     26 C           8.6580   -1.5318    0.0000 C.2     1  UNL1        0.3076
     27 C           4.3198   -3.0536    0.0000 C.3     1  UNL1       -0.0620
     28 C           5.1689    2.5124    0.0000 C.2     1  UNL1        0.3043
     29 C           7.8105    3.0536    0.0000 C.3     1  UNL1        0.0370
     30 C           4.2971    3.0024    0.0000 C.3     1  UNL1        0.0332
     31 H           5.3289    0.4003    0.0000 H       1  UNL1        0.0353
     32 H           8.5900    0.3959    0.0000 H       1  UNL1        0.0316
     33 H           5.2088   -2.3690    0.0000 H       1  UNL1        0.0314
     34 H           6.9337   -2.3690    0.0000 H       1  UNL1        0.0739
     35 H           5.5195    0.7053    0.0000 H       1  UNL1        0.0763
     36 H           5.6697   -2.4939    0.0000 H       1  UNL1        0.0304
     37 H           6.4668   -2.4939    0.0000 H       1  UNL1        0.0304
     38 H           8.3874    0.7164    0.0000 H       1  UNL1        0.0327
     39 H           6.4115    1.8572    0.0000 H       1  UNL1        0.0636
     40 H           3.7744   -2.3688    0.0000 H       1  UNL1        0.0302
     41 H           7.5543    0.4810    0.0000 H       1  UNL1        0.0236
     42 H           6.9343    1.1010    0.0000 H       1  UNL1        0.0236
     43 H           6.3143    0.4810    0.0000 H       1  UNL1        0.0236
     44 H           9.2907   -0.6663    0.0000 H       1  UNL1        0.0380
     45 H           8.9154    0.0347    0.0000 H       1  UNL1        0.0380
     46 H           5.8222    0.4810    0.0000 H       1  UNL1        0.0239
     47 H           5.2022    1.1010    0.0000 H       1  UNL1        0.0239
     48 H           4.5822    0.4810    0.0000 H       1  UNL1        0.0239
     49 H           2.7914   -1.4337    0.0000 H       1  UNL1        0.0297
     50 H           3.1932   -2.1235    0.0000 H       1  UNL1        0.0297
     51 H           2.8647   -0.8071    0.0000 H       1  UNL1        0.0673
     52 H           9.0282    0.9880    0.0000 H       1  UNL1        0.0233
     53 H           9.2584    1.8340    0.0000 H       1  UNL1        0.0233
     54 H           8.4123    2.0642    0.0000 H       1  UNL1        0.0233
     55 H           3.6999   -3.0608    0.0000 H       1  UNL1        0.0233
     56 H           4.3270   -3.6736    0.0000 H       1  UNL1        0.0233
     57 H           4.9398   -3.0464    0.0000 H       1  UNL1        0.0233
     58 H           2.0000   -0.3028    0.0000 H       1  UNL1        0.2104
     59 H           8.1225    2.5178    0.0000 H       1  UNL1        0.0524
     60 H           8.3462    3.3657    0.0000 H       1  UNL1        0.0524
     61 H           7.4984    3.5893    0.0000 H       1  UNL1        0.0524
     62 H           4.6009    3.5428    0.0000 H       1  UNL1        0.0342
     63 H           3.7566    3.3061    0.0000 H       1  UNL1        0.0342
     64 H           3.9934    2.4619    0.0000 H       1  UNL1        0.0342
@<TRIPOS>BOND
     1     1    13    1
     2     1    26    1
     3    14     2    1
     4     2    28    1
     5    17     3    1
     6     3    29    1
     7     4    20    2
     8    24     5    1
     9     5    58    1
    10     6    26    2
    11     7    28    2
    12     8     9    1
    13     8    11    1
    14     8    13    1
    15     8    19    1
    16     9    10    1
    17     9    14    1
    18     9    31    1
    19    10    12    1
    20    10    20    1
    21    10    22    1
    22    11    16    1
    23    11    21    1
    24    11    32    1
    25    12    15    1
    26    12    18    1
    27    12    33    1
    28    13    15    1
    29    13    34    1
    30    14    17    1
    31    14    35    1
    32    15    36    1
    33    15    37    1
    34    16    17    1
    35    16    25    1
    36    16    38    1
    37    17    39    1
    38    18    23    1
    39    18    27    1
    40    18    40    1
    41    19    41    1
    42    19    42    1
    43    19    43    1
    44    20    24    1
    45    21    26    1
    46    21    44    1
    47    21    45    1
    48    22    46    1
    49    22    47    1
    50    22    48    1
    51    23    24    1
    52    23    49    1
    53    23    50    1
    54    24    51    1
    55    25    52    1
    56    25    53    1
    57    25    54    1
    58    27    55    1
    59    27    56    1
    60    27    57    1
    61    28    30    1
    62    29    59    1
    63    29    60    1
    64    29    61    1
    65    30    62    1
    66    30    63    1
    67    30    64    1
