@<TRIPOS>MOLECULE
IMPHY005676
 148 156 0 0 0
SMALL
GASTEIGER

@<TRIPOS>ATOM
      1 O          10.8882    1.3555    0.0000 O.2     1  UNL1       -0.4925
      2 O           7.7624   -0.6984    0.0000 O.2     1  UNL1       -0.2968
      3 O          12.1600   -4.2265    0.0000 O.2     1  UNL1       -0.2971
      4 O           9.4651   -6.8886    0.0000 O.3     1  UNL1       -0.3454
      5 O           7.7331   -6.8886    0.0000 O.3     1  UNL1       -0.3405
      6 O           9.4651   -8.8886    0.0000 O.3     1  UNL1       -0.3841
      7 O           7.7331   -9.8886    0.0000 O.3     1  UNL1       -0.3864
      8 O           6.0010   -8.8886    0.0000 O.3     1  UNL1       -0.3402
      9 O          11.3225    6.0093    0.0000 O.3     1  UNL1       -0.3484
     10 O           6.0010   -5.8886    0.0000 O.3     1  UNL1       -0.3461
     11 O           5.1350   -7.3886    0.0000 O.3     1  UNL1       -0.3461
     12 O          12.0223    7.5937    0.0000 O.3     1  UNL1       -0.3405
     13 O           4.2690   -5.8886    0.0000 O.3     1  UNL1       -0.3461
     14 O           4.2690   -9.8886    0.0000 O.3     1  UNL1       -0.3841
     15 O          13.1521    5.2013    0.0000 O.3     1  UNL1       -0.3841
     16 O           2.5369   -8.8886    0.0000 O.3     1  UNL1       -0.3864
     17 O          14.7666    6.3817    0.0000 O.3     1  UNL1       -0.3864
     18 O           6.0010   -3.8886    0.0000 O.3     1  UNL1       -0.3841
     19 O           2.5369   -6.8886    0.0000 O.3     1  UNL1       -0.3869
     20 O          14.5516    8.3701    0.0000 O.3     1  UNL1       -0.3865
     21 O           4.2690   -2.8886    0.0000 O.3     1  UNL1       -0.3864
     22 O           2.5369   -3.8886    0.0000 O.3     1  UNL1       -0.3869
     23 O          11.8073    9.5822    0.0000 O.3     1  UNL1       -0.3924
     24 C          10.3623   -1.1884    0.0000 C.3     1  UNL1       -0.0214
     25 C           9.4944   -0.6917    0.0000 C.3     1  UNL1        0.0393
     26 C          10.3662   -2.1883    0.0000 C.3     1  UNL1       -0.0268
     27 C           9.5021   -2.6917    0.0000 C.3     1  UNL1       -0.0248
     28 C           9.4901   -3.7332    0.0000 C.3     1  UNL1       -0.0189
     29 C           9.6999    0.2809    0.0000 C.3     1  UNL1        0.0325
     30 C          11.0968   -0.5184    0.0000 C.3     1  UNL1       -0.0112
     31 C          10.6882    0.3878    0.0000 C.3     1  UNL1        0.1075
     32 C          10.3901   -4.2575    0.0000 C.3     1  UNL1        0.0255
     33 C           8.6342   -2.1950    0.0000 C.3     1  UNL1        0.0100
     34 C          11.2781   -2.6917    0.0000 C.3     1  UNL1        0.0095
     35 C           8.6303   -1.1950    0.0000 C.2     1  UNL1        0.1404
     36 C           8.5402   -4.2575    0.0000 C.3     1  UNL1       -0.0444
     37 C          11.2902   -3.7332    0.0000 C.2     1  UNL1        0.1373
     38 C           8.6264   -0.1950    0.0000 C.3     1  UNL1       -0.0519
     39 C          10.4027   -5.3424    0.0000 C.3     1  UNL1       -0.0165
     40 C           9.2976    1.1835    0.0000 C.2     1  UNL1       -0.0277
     41 C           8.6260   -3.2299    0.0000 C.3     1  UNL1       -0.0586
     42 C           8.5276   -5.3424    0.0000 C.3     1  UNL1       -0.0260
     43 C           9.4651   -5.8886    0.0000 C.3     1  UNL1        0.0625
     44 C          10.0305    1.8463    0.0000 C.2     1  UNL1        0.0975
     45 C           8.3192    1.3902    0.0000 C.3     1  UNL1       -0.0400
     46 C           9.9230    2.8405    0.0000 C.3     1  UNL1        0.0052
     47 C          10.7303    3.4307    0.0000 C.3     1  UNL1       -0.0415
     48 C           8.5991   -7.3886    0.0000 C.3     1  UNL1        0.1882
     49 C          10.6228    4.4249    0.0000 C.3     1  UNL1       -0.0199
     50 C           8.5991   -8.3886    0.0000 C.3     1  UNL1        0.1341
     51 C           7.7331   -8.8886    0.0000 C.3     1  UNL1        0.1144
     52 C           6.8671   -7.3886    0.0000 C.3     1  UNL1        0.1137
     53 C           6.8671   -8.3886    0.0000 C.3     1  UNL1        0.1184
     54 C          11.4300    5.0151    0.0000 C.3     1  UNL1        0.0533
     55 C           9.7080    4.8289    0.0000 C.3     1  UNL1       -0.0603
     56 C           6.0010   -6.8886    0.0000 C.3     1  UNL1        0.0796
     57 C           5.1350   -8.3886    0.0000 C.3     1  UNL1        0.1880
     58 C          12.1298    6.5995    0.0000 C.3     1  UNL1        0.1879
     59 C           4.2690   -8.8886    0.0000 C.3     1  UNL1        0.1341
     60 C          13.0446    6.1955    0.0000 C.3     1  UNL1        0.1341
     61 C           5.1350   -5.3886    0.0000 C.3     1  UNL1        0.1876
     62 C           3.4030   -8.3886    0.0000 C.3     1  UNL1        0.1137
     63 C          13.8518    6.7857    0.0000 C.3     1  UNL1        0.1141
     64 C          12.8296    8.1839    0.0000 C.3     1  UNL1        0.1130
     65 C           5.1350   -4.3886    0.0000 C.3     1  UNL1        0.1341
     66 C           4.2690   -6.8886    0.0000 C.3     1  UNL1        0.0792
     67 C           3.4030   -7.3886    0.0000 C.3     1  UNL1        0.1069
     68 C          13.7443    7.7799    0.0000 C.3     1  UNL1        0.1119
     69 C           4.2690   -3.8886    0.0000 C.3     1  UNL1        0.1137
     70 C           3.4030   -5.3886    0.0000 C.3     1  UNL1        0.0792
     71 C           3.4030   -4.3886    0.0000 C.3     1  UNL1        0.1069
     72 C          12.7221    9.1782    0.0000 C.3     1  UNL1        0.0730
     73 H          11.1406   -1.5301    0.0000 H       1  UNL1        0.0314
     74 H          11.0974   -1.7548    0.0000 H       1  UNL1        0.0311
     75 H          10.2366   -3.1195    0.0000 H       1  UNL1        0.0313
     76 H           8.8546    0.1914    0.0000 H       1  UNL1        0.0392
     77 H          11.4642   -1.0179    0.0000 H       1  UNL1        0.0304
     78 H          11.6321   -0.2056    0.0000 H       1  UNL1        0.0304
     79 H          11.5330    0.4810    0.0000 H       1  UNL1        0.0739
     80 H          11.1295   -4.6768    0.0000 H       1  UNL1        0.0384
     81 H           8.0232   -2.0897    0.0000 H       1  UNL1        0.0345
     82 H           8.4244   -2.7784    0.0000 H       1  UNL1        0.0345
     83 H          11.8902   -2.7907    0.0000 H       1  UNL1        0.0345
     84 H          11.4804   -2.1056    0.0000 H       1  UNL1        0.0345
     85 H           8.3379   -3.6714    0.0000 H       1  UNL1        0.0272
     86 H           7.9281   -4.3565    0.0000 H       1  UNL1        0.0272
     87 H           8.9344    0.3431    0.0000 H       1  UNL1        0.0239
     88 H           8.0883    0.1129    0.0000 H       1  UNL1        0.0239
     89 H           8.3185   -0.7332    0.0000 H       1  UNL1        0.0239
     90 H          10.6185   -5.9237    0.0000 H       1  UNL1        0.0297
     91 H          11.0123   -5.2293    0.0000 H       1  UNL1        0.0297
     92 H           8.9380   -2.6942    0.0000 H       1  UNL1        0.0235
     93 H           8.0902   -2.9178    0.0000 H       1  UNL1        0.0235
     94 H           8.3139   -3.7656    0.0000 H       1  UNL1        0.0235
     95 H           7.9180   -5.2293    0.0000 H       1  UNL1        0.0290
     96 H           8.3118   -5.9237    0.0000 H       1  UNL1        0.0290
     97 H          10.0027   -6.1975    0.0000 H       1  UNL1        0.0597
     98 H           8.4473    1.9968    0.0000 H       1  UNL1        0.0276
     99 H           7.7125    1.5184    0.0000 H       1  UNL1        0.0276
    100 H           8.1910    0.7836    0.0000 H       1  UNL1        0.0276
    101 H           9.6496    3.3970    0.0000 H       1  UNL1        0.0343
    102 H           9.3276    2.6678    0.0000 H       1  UNL1        0.0343
    103 H          11.0037    2.8743    0.0000 H       1  UNL1        0.0273
    104 H          11.3258    3.6034    0.0000 H       1  UNL1        0.0273
    105 H           8.5991   -6.7686    0.0000 H       1  UNL1        0.0937
    106 H          10.1223    4.0590    0.0000 H       1  UNL1        0.0320
    107 H           8.5991   -9.0086    0.0000 H       1  UNL1        0.0671
    108 H           7.1962   -9.1986    0.0000 H       1  UNL1        0.0648
    109 H           6.8671   -6.7686    0.0000 H       1  UNL1        0.0647
    110 H           6.3301   -8.0786    0.0000 H       1  UNL1        0.0651
    111 H          11.7035    4.4587    0.0000 H       1  UNL1        0.0563
    112 H          12.0255    5.1878    0.0000 H       1  UNL1        0.0563
    113 H           9.9585    5.3961    0.0000 H       1  UNL1        0.0233
    114 H           9.1409    5.0794    0.0000 H       1  UNL1        0.0233
    115 H           9.4576    4.2618    0.0000 H       1  UNL1        0.0233
    116 H          10.0021   -8.5786    0.0000 H       1  UNL1        0.2101
    117 H           5.3905   -6.7809    0.0000 H       1  UNL1        0.0587
    118 H           5.7890   -7.4712    0.0000 H       1  UNL1        0.0587
    119 H           8.2700  -10.1986    0.0000 H       1  UNL1        0.2100
    120 H           5.1350   -9.0086    0.0000 H       1  UNL1        0.0937
    121 H          12.1964    5.9831    0.0000 H       1  UNL1        0.0937
    122 H           3.7320   -9.1986    0.0000 H       1  UNL1        0.0671
    123 H          13.6117    5.9450    0.0000 H       1  UNL1        0.0671
    124 H           5.1350   -6.0086    0.0000 H       1  UNL1        0.0937
    125 H           2.8660   -8.0786    0.0000 H       1  UNL1        0.0647
    126 H          14.3523    7.1517    0.0000 H       1  UNL1        0.0648
    127 H          12.2624    8.4344    0.0000 H       1  UNL1        0.0647
    128 H           5.1350   -3.7686    0.0000 H       1  UNL1        0.0671
    129 H           4.6675   -6.4136    0.0000 H       1  UNL1        0.0587
    130 H           3.8705   -6.4136    0.0000 H       1  UNL1        0.0587
    131 H           3.4030   -6.7686    0.0000 H       1  UNL1        0.0643
    132 H          13.6777    8.3964    0.0000 H       1  UNL1        0.0647
    133 H           3.7320   -3.5786    0.0000 H       1  UNL1        0.0647
    134 H           3.7320  -10.1986    0.0000 H       1  UNL1        0.2101
    135 H          13.7192    4.9508    0.0000 H       1  UNL1        0.2101
    136 H           2.7924   -5.2809    0.0000 H       1  UNL1        0.0587
    137 H           3.1909   -5.9712    0.0000 H       1  UNL1        0.0587
    138 H           3.9650   -3.7686    0.0000 H       1  UNL1        0.0643
    139 H          13.3407    9.1367    0.0000 H       1  UNL1        0.0584
    140 H          12.8702    9.7802    0.0000 H       1  UNL1        0.0584
    141 H           2.0000   -8.5786    0.0000 H       1  UNL1        0.2100
    142 H          15.2671    6.7476    0.0000 H       1  UNL1        0.2100
    143 H           6.0010   -3.2686    0.0000 H       1  UNL1        0.2101
    144 H           2.0000   -7.1986    0.0000 H       1  UNL1        0.2100
    145 H          14.4849    8.9866    0.0000 H       1  UNL1        0.2100
    146 H           3.7320   -2.5786    0.0000 H       1  UNL1        0.2100
    147 H           2.0000   -4.1986    0.0000 H       1  UNL1        0.2100
    148 H          11.7406   10.1986    0.0000 H       1  UNL1        0.2095
@<TRIPOS>BOND
     1     1    31    1
     2     1    44    1
     3     2    35    2
     4     3    37    2
     5    43     4    1
     6    48     4    1
     7     5    48    1
     8     5    52    1
     9    50     6    1
    10     6   116    1
    11    51     7    1
    12     7   119    1
    13    53     8    1
    14    57     8    1
    15     9    54    1
    16    58     9    1
    17    10    56    1
    18    61    10    1
    19    11    57    1
    20    11    66    1
    21    12    58    1
    22    12    64    1
    23    13    61    1
    24    13    70    1
    25    59    14    1
    26    14   134    1
    27    60    15    1
    28    15   135    1
    29    62    16    1
    30    16   141    1
    31    63    17    1
    32    17   142    1
    33    65    18    1
    34    18   143    1
    35    67    19    1
    36    19   144    1
    37    68    20    1
    38    20   145    1
    39    69    21    1
    40    21   146    1
    41    71    22    1
    42    22   147    1
    43    23    72    1
    44    23   148    1
    45    24    25    1
    46    24    26    1
    47    24    30    1
    48    24    73    1
    49    25    29    1
    50    25    35    1
    51    25    38    1
    52    26    27    1
    53    26    34    1
    54    26    74    1
    55    27    28    1
    56    27    33    1
    57    27    75    1
    58    28    32    1
    59    28    36    1
    60    28    41    1
    61    29    31    1
    62    29    40    1
    63    29    76    1
    64    30    31    1
    65    30    77    1
    66    30    78    1
    67    31    79    1
    68    32    37    1
    69    32    39    1
    70    32    80    1
    71    33    35    1
    72    33    81    1
    73    33    82    1
    74    34    37    1
    75    34    83    1
    76    34    84    1
    77    36    42    1
    78    36    85    1
    79    36    86    1
    80    38    87    1
    81    38    88    1
    82    38    89    1
    83    39    43    1
    84    39    90    1
    85    39    91    1
    86    40    44    2
    87    40    45    1
    88    41    92    1
    89    41    93    1
    90    41    94    1
    91    42    43    1
    92    42    95    1
    93    42    96    1
    94    43    97    1
    95    44    46    1
    96    45    98    1
    97    45    99    1
    98    45   100    1
    99    46    47    1
   100    46   101    1
   101    46   102    1
   102    47    49    1
   103    47   103    1
   104    47   104    1
   105    48    50    1
   106    48   105    1
   107    49    54    1
   108    49    55    1
   109    49   106    1
   110    50    51    1
   111    50   107    1
   112    51    53    1
   113    51   108    1
   114    52    53    1
   115    52    56    1
   116    52   109    1
   117    53   110    1
   118    54   111    1
   119    54   112    1
   120    55   113    1
   121    55   114    1
   122    55   115    1
   123    56   117    1
   124    56   118    1
   125    57    59    1
   126    57   120    1
   127    58    60    1
   128    58   121    1
   129    59    62    1
   130    59   122    1
   131    60    63    1
   132    60   123    1
   133    61    65    1
   134    61   124    1
   135    62    67    1
   136    62   125    1
   137    63    68    1
   138    63   126    1
   139    64    68    1
   140    64    72    1
   141    64   127    1
   142    65    69    1
   143    65   128    1
   144    66    67    1
   145    66   129    1
   146    66   130    1
   147    67   131    1
   148    68   132    1
   149    69    71    1
   150    69   133    1
   151    70    71    1
   152    70   136    1
   153    70   137    1
   154    71   138    1
   155    72   139    1
   156    72   140    1
