@<TRIPOS>MOLECULE
IMPHY011121
 123 129 0 0 0
SMALL
GASTEIGER

@<TRIPOS>ATOM
      1 O           7.7331   -1.6941    0.0000 O.3     1  UNL1       -0.3448
      2 O          10.1773   -1.0024    0.0000 O.3     1  UNL1       -0.3944
      3 O           9.4869    7.5853    0.0000 O.3     1  UNL1       -0.4802
      4 O          10.3702    6.0954    0.0000 O.2     1  UNL1       -0.2504
      5 O           6.0010   -1.6941    0.0000 O.3     1  UNL1       -0.3315
      6 O           7.7331   -3.6941    0.0000 O.3     1  UNL1       -0.3841
      7 O           6.0010   -4.6941    0.0000 O.3     1  UNL1       -0.3400
      8 O           4.2690   -3.6941    0.0000 O.3     1  UNL1       -0.3860
      9 O           4.2690   -0.6941    0.0000 O.3     1  UNL1       -0.4788
     10 O           3.4030   -2.1941    0.0000 O.2     1  UNL1       -0.2480
     11 O           4.2690   -4.6941    0.0000 O.3     1  UNL1       -0.3405
     12 O           6.0010   -6.6941    0.0000 O.3     1  UNL1       -0.3841
     13 O           4.2690   -7.6941    0.0000 O.3     1  UNL1       -0.3864
     14 O           2.5369   -6.6941    0.0000 O.3     1  UNL1       -0.3865
     15 O           2.5369   -3.6941    0.0000 O.3     1  UNL1       -0.3924
     16 C           8.6342    3.0061    0.0000 C.3     1  UNL1       -0.0194
     17 C           7.7701    2.5027    0.0000 C.3     1  UNL1       -0.0257
     18 C           7.7580    1.4612    0.0000 C.3     1  UNL1       -0.0249
     19 C           8.6303    4.0061    0.0000 C.3     1  UNL1       -0.0051
     20 C           8.6581    0.9369    0.0000 C.3     1  UNL1       -0.0255
     21 C           9.5461    2.5027    0.0000 C.3     1  UNL1       -0.0463
     22 C           8.6706   -0.1480    0.0000 C.3     1  UNL1        0.0206
     23 C           9.5581    1.4612    0.0000 C.3     1  UNL1       -0.0485
     24 C           7.7624    4.5027    0.0000 C.2     1  UNL1       -0.0629
     25 C           6.8081    0.9369    0.0000 C.3     1  UNL1       -0.0447
     26 C           6.9021    2.9994    0.0000 C.3     1  UNL1       -0.0306
     27 C           7.7423    5.5442    0.0000 C.3     1  UNL1       -0.0031
     28 C           9.5383    4.5164    0.0000 C.3     1  UNL1       -0.0424
     29 C           8.6383    6.0754    0.0000 C.3     1  UNL1        0.0741
     30 C           7.7331   -0.6941    0.0000 C.3     1  UNL1        0.0695
     31 C           9.6183    3.1835    0.0000 C.3     1  UNL1       -0.0585
     32 C           9.5424    5.5580    0.0000 C.3     1  UNL1       -0.0359
     33 C           6.8939    1.9645    0.0000 C.3     1  UNL1       -0.0590
     34 C           6.7956   -0.1480    0.0000 C.3     1  UNL1       -0.0254
     35 C           6.8983    3.9994    0.0000 C.2     1  UNL1       -0.0836
     36 C           9.6158    3.8362    0.0000 C.3     1  UNL1       -0.0553
     37 C           6.7884    6.0611    0.0000 C.3     1  UNL1       -0.0403
     38 C           8.6424    7.1604    0.0000 C.3     1  UNL1       -0.0362
     39 C           6.7674    7.1459    0.0000 C.3     1  UNL1       -0.0343
     40 C           9.6706   -0.1403    0.0000 C.3     1  UNL1        0.0522
     41 C           9.1773   -1.0102    0.0000 C.3     1  UNL1       -0.0548
     42 C           7.7007    7.6992    0.0000 C.3     1  UNL1       -0.0468
     43 C           9.4985    6.5854    0.0000 C.2     1  UNL1        0.3115
     44 C           6.2542    8.0041    0.0000 C.3     1  UNL1       -0.0598
     45 C           5.7676    7.1305    0.0000 C.3     1  UNL1       -0.0598
     46 C           6.8671   -2.1941    0.0000 C.3     1  UNL1        0.1888
     47 C           6.8671   -3.1941    0.0000 C.3     1  UNL1        0.1345
     48 C           6.0010   -3.6941    0.0000 C.3     1  UNL1        0.1211
     49 C           5.1350   -2.1941    0.0000 C.3     1  UNL1        0.1859
     50 C           5.1350   -3.1941    0.0000 C.3     1  UNL1        0.1205
     51 C           4.2690   -1.6941    0.0000 C.2     1  UNL1        0.3367
     52 C           5.1350   -5.1941    0.0000 C.3     1  UNL1        0.1884
     53 C           5.1350   -6.1941    0.0000 C.3     1  UNL1        0.1341
     54 C           4.2690   -6.6941    0.0000 C.3     1  UNL1        0.1141
     55 C           3.4030   -5.1941    0.0000 C.3     1  UNL1        0.1130
     56 C           3.4030   -6.1941    0.0000 C.3     1  UNL1        0.1119
     57 C           2.5369   -4.6941    0.0000 C.3     1  UNL1        0.0730
     58 H           8.3058    2.1907    0.0000 H       1  UNL1        0.0315
     59 H           9.1974    0.6311    0.0000 H       1  UNL1        0.0313
     60 H          10.1581    2.4037    0.0000 H       1  UNL1        0.0271
     61 H           9.7484    3.0888    0.0000 H       1  UNL1        0.0271
     62 H           9.7739    0.8800    0.0000 H       1  UNL1        0.0268
     63 H          10.1677    1.5743    0.0000 H       1  UNL1        0.0268
     64 H           6.6058    1.5230    0.0000 H       1  UNL1        0.0271
     65 H           6.1961    0.8379    0.0000 H       1  UNL1        0.0271
     66 H           6.2911    3.1047    0.0000 H       1  UNL1        0.0310
     67 H           6.6923    2.4160    0.0000 H       1  UNL1        0.0310
     68 H           7.2126    5.2218    0.0000 H       1  UNL1        0.0357
     69 H           9.7451    3.9319    0.0000 H       1  UNL1        0.0274
     70 H          10.1496    4.6202    0.0000 H       1  UNL1        0.0274
     71 H           8.2706   -1.0031    0.0000 H       1  UNL1        0.0603
     72 H           9.7283    2.5734    0.0000 H       1  UNL1        0.0235
     73 H          10.2284    3.2936    0.0000 H       1  UNL1        0.0235
     74 H           9.5083    3.7937    0.0000 H       1  UNL1        0.0235
     75 H          10.1528    5.4496    0.0000 H       1  UNL1        0.0276
     76 H           9.7536    6.1409    0.0000 H       1  UNL1        0.0276
     77 H           7.2060    2.5003    0.0000 H       1  UNL1        0.0235
     78 H           6.3582    2.2766    0.0000 H       1  UNL1        0.0235
     79 H           6.5818    1.4288    0.0000 H       1  UNL1        0.0235
     80 H           6.1860   -0.0349    0.0000 H       1  UNL1        0.0290
     81 H           6.5798   -0.7293    0.0000 H       1  UNL1        0.0290
     82 H           6.3601    4.3073    0.0000 H       1  UNL1        0.0572
     83 H           9.5105    3.2252    0.0000 H       1  UNL1        0.0238
     84 H          10.2268    3.7309    0.0000 H       1  UNL1        0.0238
     85 H           9.7211    4.4472    0.0000 H       1  UNL1        0.0238
     86 H           6.1756    6.1554    0.0000 H       1  UNL1        0.0276
     87 H           6.5906    5.4735    0.0000 H       1  UNL1        0.0276
     88 H           9.2529    7.0519    0.0000 H       1  UNL1        0.0276
     89 H           8.8538    7.7433    0.0000 H       1  UNL1        0.0276
     90 H          10.2516    0.0762    0.0000 H       1  UNL1        0.0563
     91 H           9.5582    0.4694    0.0000 H       1  UNL1        0.0563
     92 H           8.6428   -1.3243    0.0000 H       1  UNL1        0.0237
     93 H           9.4914   -1.5447    0.0000 H       1  UNL1        0.0237
     94 H           9.7118   -0.6960    0.0000 H       1  UNL1        0.0237
     95 H           8.0962    8.1767    0.0000 H       1  UNL1        0.0271
     96 H           7.2980    8.1706    0.0000 H       1  UNL1        0.0271
     97 H           5.7580    7.7504    0.0000 H       1  UNL1        0.0235
     98 H           6.7862    8.3224    0.0000 H       1  UNL1        0.0235
     99 H           5.9359    8.5362    0.0000 H       1  UNL1        0.0235
    100 H           5.7220    7.6859    0.0000 H       1  UNL1        0.0235
    101 H           5.1476    7.1209    0.0000 H       1  UNL1        0.0235
    102 H           5.7771    6.5106    0.0000 H       1  UNL1        0.0235
    103 H           7.4040   -2.5041    0.0000 H       1  UNL1        0.0938
    104 H          10.7972   -0.9977    0.0000 H       1  UNL1        0.2094
    105 H          10.0202    7.9015    0.0000 H       1  UNL1        0.2951
    106 H           6.8671   -3.8141    0.0000 H       1  UNL1        0.0671
    107 H           5.4641   -4.0041    0.0000 H       1  UNL1        0.0652
    108 H           5.1350   -1.5741    0.0000 H       1  UNL1        0.0741
    109 H           4.5981   -2.8841    0.0000 H       1  UNL1        0.0652
    110 H           7.7331   -4.3141    0.0000 H       1  UNL1        0.2101
    111 H           3.7320   -3.3841    0.0000 H       1  UNL1        0.2100
    112 H           5.1350   -4.5741    0.0000 H       1  UNL1        0.0938
    113 H           5.1350   -6.8141    0.0000 H       1  UNL1        0.0671
    114 H           3.7320   -0.3841    0.0000 H       1  UNL1        0.2951
    115 H           3.7320   -7.0041    0.0000 H       1  UNL1        0.0648
    116 H           3.4030   -4.5741    0.0000 H       1  UNL1        0.0647
    117 H           2.8660   -5.8841    0.0000 H       1  UNL1        0.0647
    118 H           6.0010   -7.3141    0.0000 H       1  UNL1        0.2101
    119 H           1.9264   -4.5865    0.0000 H       1  UNL1        0.0584
    120 H           2.3249   -5.2767    0.0000 H       1  UNL1        0.0584
    121 H           3.7320   -8.0041    0.0000 H       1  UNL1        0.2100
    122 H           2.0000   -6.3841    0.0000 H       1  UNL1        0.2100
    123 H           2.0000   -3.3841    0.0000 H       1  UNL1        0.2095
@<TRIPOS>BOND
     1     1    30    1
     2     1    46    1
     3     2    40    1
     4     2   104    1
     5     3    43    1
     6     3   105    1
     7     4    43    2
     8     5    46    1
     9     5    49    1
    10     6    47    1
    11     6   110    1
    12     7    48    1
    13     7    52    1
    14     8    50    1
    15     8   111    1
    16     9    51    1
    17     9   114    1
    18    10    51    2
    19    11    52    1
    20    11    55    1
    21    12    53    1
    22    12   118    1
    23    13    54    1
    24    13   121    1
    25    14    56    1
    26    14   122    1
    27    15    57    1
    28    15   123    1
    29    16    17    1
    30    16    19    1
    31    16    21    1
    32    16    31    1
    33    17    18    1
    34    17    26    1
    35    17    58    1
    36    18    20    1
    37    18    25    1
    38    18    33    1
    39    19    24    1
    40    19    28    1
    41    19    36    1
    42    20    22    1
    43    20    23    1
    44    20    59    1
    45    21    23    1
    46    21    60    1
    47    21    61    1
    48    22    30    1
    49    22    40    1
    50    22    41    1
    51    23    62    1
    52    23    63    1
    53    24    27    1
    54    24    35    2
    55    25    34    1
    56    25    64    1
    57    25    65    1
    58    26    35    1
    59    26    66    1
    60    26    67    1
    61    27    29    1
    62    27    37    1
    63    27    68    1
    64    28    32    1
    65    28    69    1
    66    28    70    1
    67    29    32    1
    68    29    38    1
    69    29    43    1
    70    30    34    1
    71    30    71    1
    72    31    72    1
    73    31    73    1
    74    31    74    1
    75    32    75    1
    76    32    76    1
    77    33    77    1
    78    33    78    1
    79    33    79    1
    80    34    80    1
    81    34    81    1
    82    35    82    1
    83    36    83    1
    84    36    84    1
    85    36    85    1
    86    37    39    1
    87    37    86    1
    88    37    87    1
    89    38    42    1
    90    38    88    1
    91    38    89    1
    92    39    42    1
    93    39    44    1
    94    39    45    1
    95    40    90    1
    96    40    91    1
    97    41    92    1
    98    41    93    1
    99    41    94    1
   100    42    95    1
   101    42    96    1
   102    44    98    1
   103    44    99    1
   104    44   100    1
   105    45    97    1
   106    45   101    1
   107    45   102    1
   108    46    47    1
   109    46   103    1
   110    47    48    1
   111    47   106    1
   112    48    50    1
   113    48   107    1
   114    49    50    1
   115    49    51    1
   116    49   108    1
   117    50   109    1
   118    52    53    1
   119    52   112    1
   120    53    54    1
   121    53   113    1
   122    54    56    1
   123    54   115    1
   124    55    56    1
   125    55    57    1
   126    55   116    1
   127    56   117    1
   128    57   119    1
   129    57   120    1
