@<TRIPOS>MOLECULE
IMPHY014209
 42 43 0 0 0
SMALL
GASTEIGER

@<TRIPOS>ATOM
      1 O           3.4030   -3.0000    0.0000 O.3     1  UNL1       -0.3744
      2 O           2.5369   -0.5000    0.0000 O.3     1  UNL1       -0.3856
      3 O           4.2690    0.5000    0.0000 O.3     1  UNL1       -0.4855
      4 O           7.7610    0.4653    0.0000 O.2     1  UNL1       -0.4220
      5 O           4.2690    2.5000    0.0000 O.3     1  UNL1       -0.4914
      6 O           9.5312    0.4758    0.0000 O.2     1  UNL1       -0.2452
      7 C           3.4030   -2.0000    0.0000 C.3     1  UNL1        0.0925
      8 C           3.4030   -1.0000    0.0000 C.3     1  UNL1        0.1174
      9 C           4.2690   -0.5000    0.0000 C.3     1  UNL1        0.1183
     10 C           2.4030   -2.0000    0.0000 C.3     1  UNL1       -0.0335
     11 C           4.4030   -2.0000    0.0000 C.3     1  UNL1       -0.0335
     12 C           5.1350    1.0000    0.0000 C.ar    1  UNL1        0.1655
     13 C           2.5369   -3.5000    0.0000 C.3     1  UNL1        0.0372
     14 C           5.1350    2.0000    0.0000 C.ar    1  UNL1        0.1623
     15 C           6.0010    0.5000    0.0000 C.ar    1  UNL1        0.0267
     16 C           6.8671    1.0000    0.0000 C.ar    1  UNL1        0.1428
     17 C           6.8671    2.0000    0.0000 C.ar    1  UNL1        0.0213
     18 C           6.0010    2.5000    0.0000 C.ar    1  UNL1       -0.0056
     19 C           7.7610    2.5347    0.0000 C.ar    1  UNL1       -0.0442
     20 C           8.6671    2.0208    0.0000 C.ar    1  UNL1        0.0236
     21 C           8.6671    0.9792    0.0000 C.ar    1  UNL1        0.3372
     22 C           4.2690    3.5000    0.0000 C.3     1  UNL1        0.0790
     23 H           3.4030   -0.3800    0.0000 H       1  UNL1        0.0656
     24 H           4.4810   -1.0826    0.0000 H       1  UNL1        0.0724
     25 H           4.8796   -0.3923    0.0000 H       1  UNL1        0.0724
     26 H           2.4030   -1.3800    0.0000 H       1  UNL1        0.0258
     27 H           1.7830   -2.0000    0.0000 H       1  UNL1        0.0258
     28 H           2.4030   -2.6200    0.0000 H       1  UNL1        0.0258
     29 H           4.4030   -2.6200    0.0000 H       1  UNL1        0.0258
     30 H           5.0230   -2.0000    0.0000 H       1  UNL1        0.0258
     31 H           4.4030   -1.3800    0.0000 H       1  UNL1        0.0258
     32 H           2.0000   -0.8100    0.0000 H       1  UNL1        0.2100
     33 H           2.2269   -2.9631    0.0000 H       1  UNL1        0.0524
     34 H           2.0000   -3.8100    0.0000 H       1  UNL1        0.0524
     35 H           2.8469   -4.0369    0.0000 H       1  UNL1        0.0524
     36 H           6.0010   -0.1200    0.0000 H       1  UNL1        0.0692
     37 H           6.0010    3.1200    0.0000 H       1  UNL1        0.0662
     38 H           7.7538    3.1546    0.0000 H       1  UNL1        0.0627
     39 H           9.2028    2.3329    0.0000 H       1  UNL1        0.0689
     40 H           4.8890    3.5000    0.0000 H       1  UNL1        0.0660
     41 H           4.2690    4.1200    0.0000 H       1  UNL1        0.0660
     42 H           3.6490    3.5000    0.0000 H       1  UNL1        0.0660
@<TRIPOS>BOND
     1     1     7    1
     2     1    13    1
     3     2     8    1
     4     2    32    1
     5     3     9    1
     6     3    12    1
     7     4    16   ar
     8     4    21   ar
     9     5    14    1
    10     5    22    1
    11     6    21    2
    12     7     8    1
    13     7    10    1
    14     7    11    1
    15     8     9    1
    16     8    23    1
    17     9    24    1
    18     9    25    1
    19    10    26    1
    20    10    27    1
    21    10    28    1
    22    11    29    1
    23    11    30    1
    24    11    31    1
    25    12    14   ar
    26    12    15   ar
    27    13    33    1
    28    13    34    1
    29    13    35    1
    30    14    18   ar
    31    15    16   ar
    32    15    36    1
    33    16    17   ar
    34    17    18   ar
    35    17    19   ar
    36    18    37    1
    37    19    20   ar
    38    19    38    1
    39    20    21   ar
    40    20    39    1
    41    22    40    1
    42    22    41    1
    43    22    42    1
