@<TRIPOS>MOLECULE
IMPHY000362
 59 62 0 0 0
SMALL
GASTEIGER

@<TRIPOS>ATOM
      1 O           6.0812   -3.3003    0.0000 O.3     1  UNL1       -0.4791
      2 O           5.7240    0.0040    0.0000 O.3     1  UNL1       -0.4578
      3 O           7.6811    0.4164    0.0000 O.3     1  UNL1       -0.3852
      4 O           8.3024    2.3174    0.0000 O.3     1  UNL1       -0.3851
      5 O           7.3704   -0.5341    0.0000 O.2     1  UNL1       -0.2500
      6 O           4.2690   -4.4956    0.0000 O.3     1  UNL1       -0.5033
      7 O           5.3204    4.3441    0.0000 O.3     1  UNL1       -0.4773
      8 O           4.0312    3.1874    0.0000 O.2     1  UNL1       -0.2455
      9 O           9.6648   -4.2276    0.0000 O.3     1  UNL1       -0.5033
     10 O          10.6648   -2.4956    0.0000 O.3     1  UNL1       -0.5033
     11 O           2.5369    1.5044    0.0000 O.3     1  UNL1       -0.4775
     12 O           4.2690    1.5044    0.0000 O.2     1  UNL1       -0.2458
     13 C           6.0812   -1.6909    0.0000 C.3     1  UNL1        0.1263
     14 C           6.6648   -2.4956    0.0000 C.3     1  UNL1        0.1425
     15 C           6.0347    0.9545    0.0000 C.3     1  UNL1        0.1357
     16 C           5.1350   -1.9956    0.0000 C.ar    1  UNL1        0.0227
     17 C           7.0132    1.1607    0.0000 C.3     1  UNL1        0.1216
     18 C           5.3669    1.6988    0.0000 C.3     1  UNL1        0.0187
     19 C           7.3239    2.1112    0.0000 C.3     1  UNL1        0.1034
     20 C           5.1350   -2.9956    0.0000 C.ar    1  UNL1        0.1672
     21 C           6.3919   -0.7403    0.0000 C.2     1  UNL1        0.3190
     22 C           7.6648   -2.4956    0.0000 C.ar    1  UNL1       -0.0026
     23 C           5.6775    2.6493    0.0000 C.2     1  UNL1        0.0386
     24 C           4.2690   -1.4956    0.0000 C.ar    1  UNL1       -0.0170
     25 C           6.6560    2.8555    0.0000 C.2     1  UNL1       -0.0432
     26 C           4.2690   -3.4956    0.0000 C.ar    1  UNL1        0.1588
     27 C           3.4030   -1.9956    0.0000 C.ar    1  UNL1       -0.0506
     28 C           8.1648   -3.3616    0.0000 C.ar    1  UNL1       -0.0098
     29 C           8.1648   -1.6296    0.0000 C.ar    1  UNL1       -0.0514
     30 C           3.4030   -2.9956    0.0000 C.ar    1  UNL1       -0.0159
     31 C           4.2690   -0.4956    0.0000 C.2     1  UNL1       -0.0474
     32 C           5.0097    3.3936    0.0000 C.2     1  UNL1        0.3327
     33 C           9.1648   -3.3616    0.0000 C.ar    1  UNL1        0.1586
     34 C           9.1648   -1.6296    0.0000 C.ar    1  UNL1       -0.0162
     35 C           9.6648   -2.4956    0.0000 C.ar    1  UNL1        0.1582
     36 C           3.4030    0.0044    0.0000 C.2     1  UNL1        0.0229
     37 C           3.4030    1.0044    0.0000 C.2     1  UNL1        0.3296
     38 H           5.6438   -1.2515    0.0000 H       1  UNL1        0.0504
     39 H           6.9466   -3.0479    0.0000 H       1  UNL1        0.0796
     40 H           6.4488    0.4930    0.0000 H       1  UNL1        0.0764
     41 H           7.6199    1.2886    0.0000 H       1  UNL1        0.0660
     42 H           4.8200    1.9908    0.0000 H       1  UNL1        0.0352
     43 H           4.9843    1.2109    0.0000 H       1  UNL1        0.0352
     44 H           7.5165    2.7005    0.0000 H       1  UNL1        0.0665
     45 H           6.8486    3.4448    0.0000 H       1  UNL1        0.0603
     46 H           2.8660   -1.6856    0.0000 H       1  UNL1        0.0625
     47 H           7.8548   -3.8986    0.0000 H       1  UNL1        0.0659
     48 H           7.8548   -1.0926    0.0000 H       1  UNL1        0.0623
     49 H           8.2877    0.5443    0.0000 H       1  UNL1        0.2101
     50 H           2.8660   -3.3056    0.0000 H       1  UNL1        0.0655
     51 H           4.8059   -0.1856    0.0000 H       1  UNL1        0.0626
     52 H           8.4950    2.9068    0.0000 H       1  UNL1        0.2103
     53 H           9.4748   -1.0926    0.0000 H       1  UNL1        0.0655
     54 H           3.7320   -4.8056    0.0000 H       1  UNL1        0.2923
     55 H           2.8660   -0.3056    0.0000 H       1  UNL1        0.0689
     56 H           4.9063    4.8056    0.0000 H       1  UNL1        0.2954
     57 H           9.3548   -4.7646    0.0000 H       1  UNL1        0.2923
     58 H          10.9748   -1.9587    0.0000 H       1  UNL1        0.2923
     59 H           2.0000    1.1944    0.0000 H       1  UNL1        0.2954
@<TRIPOS>BOND
     1     1    14    1
     2     1    20    1
     3    15     2    1
     4     2    21    1
     5    17     3    1
     6     3    49    1
     7    19     4    1
     8     4    52    1
     9     5    21    2
    10     6    26    1
    11     6    54    1
    12     7    32    1
    13     7    56    1
    14     8    32    2
    15     9    33    1
    16     9    57    1
    17    10    35    1
    18    10    58    1
    19    11    37    1
    20    11    59    1
    21    12    37    2
    22    13    14    1
    23    13    16    1
    24    13    21    1
    25    13    38    1
    26    14    22    1
    27    14    39    1
    28    15    17    1
    29    15    18    1
    30    15    40    1
    31    16    20   ar
    32    16    24   ar
    33    17    19    1
    34    17    41    1
    35    18    23    1
    36    18    42    1
    37    18    43    1
    38    19    25    1
    39    19    44    1
    40    20    26   ar
    41    22    28   ar
    42    22    29   ar
    43    23    25    2
    44    23    32    1
    45    24    27   ar
    46    24    31    1
    47    25    45    1
    48    26    30   ar
    49    27    30   ar
    50    27    46    1
    51    28    33   ar
    52    28    47    1
    53    29    34   ar
    54    29    48    1
    55    30    50    1
    56    31    36    2
    57    31    51    1
    58    33    35   ar
    59    34    35   ar
    60    34    53    1
    61    36    37    1
    62    36    55    1
