@<TRIPOS>MOLECULE
IMPHY006432
 56 60 0 0 0
SMALL
GASTEIGER

@<TRIPOS>ATOM
      1 O           3.6636    0.3905    0.0000 O.3     1  UNL1       -0.4484
      2 O           6.6412   -1.5912    0.0000 O.3     1  UNL1       -0.4262
      3 O           8.0248   -0.4771    0.0000 O.2     1  UNL1       -0.2449
      4 O           2.0000   -0.2482    0.0000 O.2     1  UNL1       -0.2449
      5 C           4.5772   -0.0163    0.0000 C.3     1  UNL1        0.1557
      6 C           5.4432   -0.5163    0.0000 C.3     1  UNL1        0.1035
      7 C           4.5772    0.9837    0.0000 C.3     1  UNL1        0.0105
      8 C           5.4432    1.4837    0.0000 C.3     1  UNL1       -0.0153
      9 C           5.0432    0.0837    0.0000 C.3     1  UNL1       -0.0316
     10 C           5.0432    0.8837    0.0000 C.3     1  UNL1       -0.0450
     11 C           6.3092   -0.0163    0.0000 C.2     1  UNL1        0.0510
     12 C           4.4727   -1.0108    0.0000 C.2     1  UNL1       -0.0108
     13 C           6.3092    0.9837    0.0000 C.2     1  UNL1       -0.0694
     14 C           3.7112    1.4837    0.0000 C.3     1  UNL1       -0.0459
     15 C           5.6524   -1.4881    0.0000 C.2     1  UNL1        0.1200
     16 C           3.4945   -1.2187    0.0000 C.2     1  UNL1        0.0618
     17 C           7.0463   -0.6834    0.0000 C.2     1  UNL1        0.3409
     18 C           5.1815   -1.7740    0.0000 C.3     1  UNL1       -0.0235
     19 C           2.9945   -0.3527    0.0000 C.2     1  UNL1        0.3401
     20 C           3.7112    2.4837    0.0000 C.3     1  UNL1       -0.0555
     21 C           4.9846   -2.2324    0.0000 C.2     1  UNL1       -0.0447
     22 C           4.8673   -2.7672    0.0000 C.3     1  UNL1       -0.0306
     23 C           3.1574   -2.2043    0.0000 C.2     1  UNL1       -0.0516
     24 C           3.8484   -2.9837    0.0000 C.2     1  UNL1       -0.0829
     25 C           2.8452    2.9837    0.0000 C.3     1  UNL1       -0.0653
     26 C           4.0061   -2.0262    0.0000 C.3     1  UNL1       -0.0316
     27 C           3.3382   -2.7705    0.0000 C.3     1  UNL1       -0.0524
     28 C           2.3597   -2.5643    0.0000 C.3     1  UNL1       -0.0650
     29 H           4.5772    1.6037    0.0000 H       1  UNL1        0.0349
     30 H           5.4432    2.3337    0.0000 H       1  UNL1        0.0347
     31 H           4.4562    0.2832    0.0000 H       1  UNL1        0.0280
     32 H           5.6366    0.2634    0.0000 H       1  UNL1        0.0280
     33 H           4.6654    1.3753    0.0000 H       1  UNL1        0.0271
     34 H           5.6366    0.7041    0.0000 H       1  UNL1        0.0271
     35 H           6.8462    1.2937    0.0000 H       1  UNL1        0.0580
     36 H           3.1006    1.5914    0.0000 H       1  UNL1        0.0269
     37 H           3.4991    0.9011    0.0000 H       1  UNL1        0.0269
     38 H           5.7319   -2.0595    0.0000 H       1  UNL1        0.0315
     39 H           5.5569   -1.2806    0.0000 H       1  UNL1        0.0315
     40 H           4.3218    2.3761    0.0000 H       1  UNL1        0.0263
     41 H           3.9232    3.0663    0.0000 H       1  UNL1        0.0263
     42 H           5.1772   -2.8217    0.0000 H       1  UNL1        0.0605
     43 H           4.8905   -3.3867    0.0000 H       1  UNL1        0.0310
     44 H           5.4817   -2.8503    0.0000 H       1  UNL1        0.0310
     45 H           2.5495   -2.3262    0.0000 H       1  UNL1        0.0623
     46 H           3.6545   -3.5726    0.0000 H       1  UNL1        0.0572
     47 H           3.1552    3.5206    0.0000 H       1  UNL1        0.0230
     48 H           2.3082    3.2937    0.0000 H       1  UNL1        0.0230
     49 H           2.5351    2.4468    0.0000 H       1  UNL1        0.0230
     50 H           4.2373   -1.4509    0.0000 H       1  UNL1        0.0308
     51 H           3.4797   -1.6985    0.0000 H       1  UNL1        0.0308
     52 H           3.1070   -3.3457    0.0000 H       1  UNL1        0.0266
     53 H           3.8646   -3.0981    0.0000 H       1  UNL1        0.0266
     54 H           2.4876   -1.9576    0.0000 H       1  UNL1        0.0230
     55 H           1.7530   -2.4364    0.0000 H       1  UNL1        0.0230
     56 H           2.2319   -3.1709    0.0000 H       1  UNL1        0.0230
@<TRIPOS>BOND
     1     5     1    1
     2     1    19    1
     3     2    15    1
     4     2    17    1
     5     3    17    2
     6     4    19    2
     7     5     6    1
     8     5     7    1
     9     5    12    1
    10     6     9    1
    11     6    11    1
    12     6    15    1
    13     7     8    1
    14     7    14    1
    15     7    29    1
    16     8    10    1
    17     8    13    1
    18     8    30    1
    19     9    10    1
    20     9    31    1
    21     9    32    1
    22    10    33    1
    23    10    34    1
    24    11    13    2
    25    11    17    1
    26    12    16    2
    27    12    18    1
    28    13    35    1
    29    14    20    1
    30    14    36    1
    31    14    37    1
    32    15    21    2
    33    16    19    1
    34    16    23    1
    35    18    22    1
    36    18    38    1
    37    18    39    1
    38    20    25    1
    39    20    40    1
    40    20    41    1
    41    21    26    1
    42    21    42    1
    43    22    24    1
    44    22    43    1
    45    22    44    1
    46    23    24    2
    47    23    45    1
    48    24    46    1
    49    25    47    1
    50    25    48    1
    51    25    49    1
    52    26    27    1
    53    26    50    1
    54    26    51    1
    55    27    28    1
    56    27    52    1
    57    27    53    1
    58    28    54    1
    59    28    55    1
    60    28    56    1
