@<TRIPOS>MOLECULE
IMPHY001182
 42 43 0 0 0
SMALL
GASTEIGER

@<TRIPOS>ATOM
      1 O           2.8660   -0.1550    0.0000 O.3     1  UNL1       -0.3868
      2 O           6.3301   -0.1550    0.0000 O.3     1  UNL1       -0.3946
      3 O           3.7320   -4.6550    0.0000 O.3     1  UNL1       -0.5068
      4 O           2.0000    4.3450    0.0000 O.3     1  UNL1       -0.5068
      5 C           4.5981   -0.1550    0.0000 C.3     1  UNL1        0.0158
      6 C           3.7320   -0.6550    0.0000 C.3     1  UNL1        0.0853
      7 C           4.5981    0.8450    0.0000 C.3     1  UNL1       -0.0269
      8 C           5.4641   -0.6550    0.0000 C.3     1  UNL1        0.0500
      9 C           3.7320   -1.6550    0.0000 C.ar    1  UNL1       -0.0186
     10 C           5.4641    1.3450    0.0000 C.2     1  UNL1       -0.0830
     11 C           2.8660   -2.1550    0.0000 C.ar    1  UNL1       -0.0527
     12 C           4.5981   -2.1550    0.0000 C.ar    1  UNL1       -0.0527
     13 C           5.4641    2.3450    0.0000 C.2     1  UNL1       -0.0585
     14 C           2.8660   -3.1550    0.0000 C.ar    1  UNL1       -0.0198
     15 C           4.5981   -3.1550    0.0000 C.ar    1  UNL1       -0.0198
     16 C           3.7320   -3.6550    0.0000 C.ar    1  UNL1        0.1169
     17 C           4.5981    2.8450    0.0000 C.ar    1  UNL1       -0.0251
     18 C           4.5981    3.8450    0.0000 C.ar    1  UNL1       -0.0512
     19 C           3.7320    2.3450    0.0000 C.ar    1  UNL1       -0.0512
     20 C           3.7320    4.3450    0.0000 C.ar    1  UNL1       -0.0196
     21 C           2.8660    2.8450    0.0000 C.ar    1  UNL1       -0.0196
     22 C           2.8660    3.8450    0.0000 C.ar    1  UNL1        0.1169
     23 H           5.1350    0.1550    0.0000 H       1  UNL1        0.0354
     24 H           3.7320   -0.0350    0.0000 H       1  UNL1        0.0647
     25 H           4.3860    1.4276    0.0000 H       1  UNL1        0.0312
     26 H           3.9875    0.7373    0.0000 H       1  UNL1        0.0312
     27 H           5.0656   -1.1300    0.0000 H       1  UNL1        0.0561
     28 H           5.8626   -1.1300    0.0000 H       1  UNL1        0.0561
     29 H           6.0010    1.0350    0.0000 H       1  UNL1        0.0572
     30 H           2.3291   -1.8450    0.0000 H       1  UNL1        0.0622
     31 H           5.1350   -1.8450    0.0000 H       1  UNL1        0.0622
     32 H           2.8660    0.4650    0.0000 H       1  UNL1        0.2102
     33 H           6.0010    2.6550    0.0000 H       1  UNL1        0.0620
     34 H           6.8671   -0.4650    0.0000 H       1  UNL1        0.2094
     35 H           2.3291   -3.4650    0.0000 H       1  UNL1        0.0654
     36 H           5.1350   -3.4650    0.0000 H       1  UNL1        0.0654
     37 H           5.1350    4.1550    0.0000 H       1  UNL1        0.0625
     38 H           3.7320    1.7250    0.0000 H       1  UNL1        0.0625
     39 H           3.7320    4.9650    0.0000 H       1  UNL1        0.0654
     40 H           2.3291    2.5350    0.0000 H       1  UNL1        0.0654
     41 H           3.1951   -4.9650    0.0000 H       1  UNL1        0.2921
     42 H           2.0000    4.9650    0.0000 H       1  UNL1        0.2921
@<TRIPOS>BOND
     1     6     1    1
     2     1    32    1
     3     2     8    1
     4     2    34    1
     5     3    16    1
     6     3    41    1
     7     4    22    1
     8     4    42    1
     9     5     6    1
    10     5     7    1
    11     5     8    1
    12     5    23    1
    13     6     9    1
    14     6    24    1
    15     7    10    1
    16     7    25    1
    17     7    26    1
    18     8    27    1
    19     8    28    1
    20     9    11   ar
    21     9    12   ar
    22    10    13    2
    23    10    29    1
    24    11    14   ar
    25    11    30    1
    26    12    15   ar
    27    12    31    1
    28    13    17    1
    29    13    33    1
    30    14    16   ar
    31    14    35    1
    32    15    16   ar
    33    15    36    1
    34    17    18   ar
    35    17    19   ar
    36    18    20   ar
    37    18    37    1
    38    19    21   ar
    39    19    38    1
    40    20    22   ar
    41    20    39    1
    42    21    22   ar
    43    21    40    1
