@<TRIPOS>MOLECULE
IMPHY005886
 71 75 0 0 0
SMALL
GASTEIGER

@<TRIPOS>ATOM
      1 O           8.4497   -2.8762    0.0000 O.3     1  UNL1       -0.3313
      2 O           4.8811   -1.8817    0.0000 O.3     1  UNL1       -0.3457
      3 O           5.8517   -3.3762    0.0000 O.3     1  UNL1       -0.3460
      4 O           2.6598   -3.2090    0.0000 O.3     1  UNL1       -0.3812
      5 O           3.8642   -4.2611    0.0000 O.3     1  UNL1       -0.3837
      6 O           6.7177   -4.8762    0.0000 O.3     1  UNL1       -0.3865
      7 O           8.4497   -5.8762    0.0000 O.3     1  UNL1       -0.3864
      8 O          10.1818   -2.8762    0.0000 O.3     1  UNL1       -0.4606
      9 O          10.1818   -4.8762    0.0000 O.3     1  UNL1       -0.3829
     10 O           2.5369   -1.0398    0.0000 O.3     1  UNL1       -0.3920
     11 O          11.9378    0.1863    0.0000 O.2     1  UNL1       -0.4618
     12 O           8.4356    0.2029    0.0000 O.3     1  UNL1       -0.5058
     13 O           9.3455    1.6963    0.0000 O.2     1  UNL1       -0.2863
     14 O          11.0929    5.6896    0.0000 O.3     1  UNL1       -0.4951
     15 C           3.4030   -2.5398    0.0000 C.3     1  UNL1        0.1425
     16 C           7.5837   -3.3762    0.0000 C.3     1  UNL1        0.1144
     17 C           4.0721   -3.2830    0.0000 C.3     1  UNL1        0.1387
     18 C           7.5837   -4.3762    0.0000 C.3     1  UNL1        0.1120
     19 C           4.9856   -2.8762    0.0000 C.3     1  UNL1        0.1880
     20 C           8.4497   -4.8762    0.0000 C.3     1  UNL1        0.1152
     21 C           9.3158   -4.3762    0.0000 C.3     1  UNL1        0.1454
     22 C           3.9030   -1.6738    0.0000 C.3     1  UNL1        0.0843
     23 C           6.7177   -2.8762    0.0000 C.3     1  UNL1        0.0796
     24 C           9.3158   -3.3762    0.0000 C.3     1  UNL1        0.2308
     25 C           2.5369   -2.0398    0.0000 C.3     1  UNL1        0.0778
     26 C          10.1818   -1.8762    0.0000 C.ar    1  UNL1        0.1310
     27 C          11.0819   -1.3519    0.0000 C.ar    1  UNL1        0.0234
     28 C           9.2817   -1.3519    0.0000 C.ar    1  UNL1        0.0226
     29 C          11.0698   -0.3104    0.0000 C.ar    1  UNL1        0.1454
     30 C           9.2938   -0.3104    0.0000 C.ar    1  UNL1        0.1347
     31 C          10.2057    0.1930    0.0000 C.ar    1  UNL1        0.1060
     32 C          10.2096    1.1930    0.0000 C.ar    1  UNL1        0.2037
     33 C          11.0775    1.6896    0.0000 C.ar    1  UNL1        0.0644
     34 C          11.9416    1.1863    0.0000 C.ar    1  UNL1        0.1038
     35 C          11.0814    2.6896    0.0000 C.ar    1  UNL1       -0.0110
     36 C          11.9493    3.1862    0.0000 C.ar    1  UNL1       -0.0504
     37 C          10.2173    3.1929    0.0000 C.ar    1  UNL1       -0.0504
     38 C          11.9532    4.1862    0.0000 C.ar    1  UNL1       -0.0194
     39 C          10.2211    4.1929    0.0000 C.ar    1  UNL1       -0.0194
     40 C          11.0891    4.6896    0.0000 C.ar    1  UNL1        0.1201
     41 C          11.9609    6.1862    0.0000 C.3     1  UNL1        0.0788
     42 H           7.5837   -2.7562    0.0000 H       1  UNL1        0.0647
     43 H           3.4732   -3.4434    0.0000 H       1  UNL1        0.0675
     44 H           7.0468   -4.0662    0.0000 H       1  UNL1        0.0647
     45 H           4.9532   -3.4954    0.0000 H       1  UNL1        0.0937
     46 H           7.9128   -5.1862    0.0000 H       1  UNL1        0.0648
     47 H           9.8527   -4.0662    0.0000 H       1  UNL1        0.0683
     48 H           4.0946   -1.0841    0.0000 H       1  UNL1        0.0591
     49 H           3.3366   -1.4216    0.0000 H       1  UNL1        0.0591
     50 H           7.1162   -2.4013    0.0000 H       1  UNL1        0.0587
     51 H           6.3192   -2.4013    0.0000 H       1  UNL1        0.0587
     52 H           9.3158   -2.7562    0.0000 H       1  UNL1        0.1084
     53 H           1.9264   -1.9322    0.0000 H       1  UNL1        0.0587
     54 H           2.3249   -2.6224    0.0000 H       1  UNL1        0.0587
     55 H           2.0702   -3.0174    0.0000 H       1  UNL1        0.2105
     56 H           3.2745   -4.4527    0.0000 H       1  UNL1        0.2101
     57 H           6.7177   -5.4962    0.0000 H       1  UNL1        0.2100
     58 H           7.9128   -6.1862    0.0000 H       1  UNL1        0.2100
     59 H          10.1818   -5.4962    0.0000 H       1  UNL1        0.2102
     60 H           2.0000   -0.7298    0.0000 H       1  UNL1        0.2095
     61 H          11.6212   -1.6578    0.0000 H       1  UNL1        0.0691
     62 H           8.7424   -1.6578    0.0000 H       1  UNL1        0.0691
     63 H          12.4797    1.4942    0.0000 H       1  UNL1        0.1037
     64 H           7.8939   -0.0988    0.0000 H       1  UNL1        0.2922
     65 H          12.4851    2.8742    0.0000 H       1  UNL1        0.0625
     66 H           9.6792    2.8850    0.0000 H       1  UNL1        0.0625
     67 H          12.4913    4.4942    0.0000 H       1  UNL1        0.0654
     68 H           9.6854    4.5050    0.0000 H       1  UNL1        0.0654
     69 H          12.2688    5.6481    0.0000 H       1  UNL1        0.0660
     70 H          12.4990    6.4942    0.0000 H       1  UNL1        0.0660
     71 H          11.6530    6.7244    0.0000 H       1  UNL1        0.0660
@<TRIPOS>BOND
     1     1    16    1
     2     1    24    1
     3     2    19    1
     4     2    22    1
     5    19     3    1
     6     3    23    1
     7    15     4    1
     8     4    55    1
     9    17     5    1
    10     5    56    1
    11    18     6    1
    12     6    57    1
    13    20     7    1
    14     7    58    1
    15    24     8    1
    16     8    26    1
    17    21     9    1
    18     9    59    1
    19    10    25    1
    20    10    60    1
    21    11    29   ar
    22    11    34   ar
    23    12    30    1
    24    12    64    1
    25    13    32    2
    26    14    40    1
    27    14    41    1
    28    15    17    1
    29    15    22    1
    30    15    25    1
    31    16    18    1
    32    16    23    1
    33    16    42    1
    34    17    19    1
    35    17    43    1
    36    18    20    1
    37    18    44    1
    38    19    45    1
    39    20    21    1
    40    20    46    1
    41    21    24    1
    42    21    47    1
    43    22    48    1
    44    22    49    1
    45    23    50    1
    46    23    51    1
    47    24    52    1
    48    25    53    1
    49    25    54    1
    50    26    27   ar
    51    26    28   ar
    52    27    29   ar
    53    27    61    1
    54    28    30   ar
    55    28    62    1
    56    29    31   ar
    57    30    31   ar
    58    31    32   ar
    59    32    33   ar
    60    33    34   ar
    61    33    35    1
    62    34    63    1
    63    35    36   ar
    64    35    37   ar
    65    36    38   ar
    66    36    65    1
    67    37    39   ar
    68    37    66    1
    69    38    40   ar
    70    38    67    1
    71    39    40   ar
    72    39    68    1
    73    41    69    1
    74    41    70    1
    75    41    71    1
