@<TRIPOS>MOLECULE
IMPHY001172
 49 50 0 0 0
SMALL
GASTEIGER

@<TRIPOS>ATOM
      1 O           4.2690    0.6550    0.0000 O.3     1  UNL1       -0.4583
      2 O           2.5369   -1.3450    0.0000 O.3     1  UNL1       -0.3855
      3 O           9.5331   -0.3658    0.0000 O.3     1  UNL1       -0.4577
      4 O           5.1350    1.1550    0.0000 O.3     1  UNL1       -0.4947
      5 O           6.8671   -1.8450    0.0000 O.3     1  UNL1       -0.5055
      6 O           8.6155   -1.8796    0.0000 O.2     1  UNL1       -0.2448
      7 O           2.5369    0.6550    0.0000 O.2     1  UNL1       -0.2512
      8 C           4.2690   -0.3450    0.0000 C.3     1  UNL1        0.1352
      9 C           3.4030   -0.8450    0.0000 C.3     1  UNL1        0.0975
     10 C           5.1350   -0.8450    0.0000 C.3     1  UNL1        0.0193
     11 C           6.0010   -0.3450    0.0000 C.ar    1  UNL1        0.0400
     12 C           7.7331    0.6550    0.0000 C.ar    1  UNL1       -0.0229
     13 C           8.6270    1.1897    0.0000 C.3     1  UNL1        0.0104
     14 C           7.7331   -0.3450    0.0000 C.ar    1  UNL1        0.1040
     15 C           6.8671   -0.8450    0.0000 C.ar    1  UNL1        0.1378
     16 C           9.5331    0.6758    0.0000 C.3     1  UNL1        0.1046
     17 C           6.0010    0.6550    0.0000 C.ar    1  UNL1        0.1271
     18 C           2.9030    0.0210    0.0000 C.3     1  UNL1       -0.0328
     19 C           3.9030   -1.7110    0.0000 C.3     1  UNL1       -0.0328
     20 C           6.8671    1.1550    0.0000 C.ar    1  UNL1       -0.0154
     21 C           8.6270   -0.8797    0.0000 C.2     1  UNL1        0.3433
     22 C          10.3972    1.1792    0.0000 C.3     1  UNL1       -0.0274
     23 C           3.4030    1.1550    0.0000 C.2     1  UNL1        0.3043
     24 C           5.1350    2.1550    0.0000 C.3     1  UNL1        0.0788
     25 C           3.4030    2.1550    0.0000 C.3     1  UNL1        0.0332
     26 H           4.8059   -0.0350    0.0000 H       1  UNL1        0.0766
     27 H           4.7365   -1.3200    0.0000 H       1  UNL1        0.0352
     28 H           5.5335   -1.3200    0.0000 H       1  UNL1        0.0352
     29 H           9.0207    1.6687    0.0000 H       1  UNL1        0.0349
     30 H           8.2224    1.6594    0.0000 H       1  UNL1        0.0349
     31 H          10.0706    0.3669    0.0000 H       1  UNL1        0.0734
     32 H           3.4399    0.3310    0.0000 H       1  UNL1        0.0258
     33 H           2.5930    0.5580    0.0000 H       1  UNL1        0.0258
     34 H           2.3660   -0.2890    0.0000 H       1  UNL1        0.0258
     35 H           3.3660   -2.0210    0.0000 H       1  UNL1        0.0258
     36 H           4.2130   -2.2480    0.0000 H       1  UNL1        0.0258
     37 H           4.4399   -1.4010    0.0000 H       1  UNL1        0.0258
     38 H           6.8671    1.7750    0.0000 H       1  UNL1        0.0657
     39 H           2.0000   -1.0350    0.0000 H       1  UNL1        0.2103
     40 H          10.7093    0.6434    0.0000 H       1  UNL1        0.0265
     41 H          10.9329    1.4912    0.0000 H       1  UNL1        0.0265
     42 H          10.0851    1.7149    0.0000 H       1  UNL1        0.0265
     43 H           6.3301   -2.1550    0.0000 H       1  UNL1        0.2922
     44 H           5.7550    2.1550    0.0000 H       1  UNL1        0.0660
     45 H           5.1350    2.7750    0.0000 H       1  UNL1        0.0660
     46 H           4.5150    2.1550    0.0000 H       1  UNL1        0.0660
     47 H           4.0230    2.1550    0.0000 H       1  UNL1        0.0342
     48 H           3.4030    2.7750    0.0000 H       1  UNL1        0.0342
     49 H           2.7830    2.1550    0.0000 H       1  UNL1        0.0342
@<TRIPOS>BOND
     1     1     8    1
     2     1    23    1
     3     2     9    1
     4     2    39    1
     5     3    16    1
     6     3    21    1
     7     4    17    1
     8     4    24    1
     9     5    15    1
    10     5    43    1
    11     6    21    2
    12     7    23    2
    13     8     9    1
    14     8    10    1
    15     8    26    1
    16     9    18    1
    17     9    19    1
    18    10    11    1
    19    10    27    1
    20    10    28    1
    21    11    15   ar
    22    11    17   ar
    23    12    13    1
    24    12    14   ar
    25    12    20   ar
    26    13    16    1
    27    13    29    1
    28    13    30    1
    29    14    15   ar
    30    14    21    1
    31    16    22    1
    32    16    31    1
    33    17    20   ar
    34    18    32    1
    35    18    33    1
    36    18    34    1
    37    19    35    1
    38    19    36    1
    39    19    37    1
    40    20    38    1
    41    22    40    1
    42    22    41    1
    43    22    42    1
    44    23    25    1
    45    24    44    1
    46    24    45    1
    47    24    46    1
    48    25    47    1
    49    25    48    1
    50    25    49    1
