@<TRIPOS>MOLECULE
IMPHY006496
 39 39 0 0 0
SMALL
GASTEIGER

@<TRIPOS>ATOM
      1 O           3.1590   -1.9837    0.0000 O.3     1  UNL1       -0.3915
      2 C           5.9895    1.5896    0.0000 C.3     1  UNL1       -0.0076
      3 C           5.1805    1.0018    0.0000 C.3     1  UNL1       -0.0107
      4 C           5.4895    0.0507    0.0000 C.3     1  UNL1       -0.0274
      5 C           6.7985    1.0018    0.0000 C.2     1  UNL1       -0.0703
      6 C           6.4895    0.0507    0.0000 C.2     1  UNL1       -0.0839
      7 C           6.5773    2.3986    0.0000 C.3     1  UNL1       -0.0556
      8 C           5.4017    2.3986    0.0000 C.3     1  UNL1       -0.0556
      9 C           4.2294    1.3108    0.0000 C.2     1  UNL1       -0.0834
     10 C           7.7496    1.3108    0.0000 C.3     1  UNL1       -0.0433
     11 C           3.4863    0.6417    0.0000 C.2     1  UNL1       -0.0824
     12 C           3.6942   -0.3365    0.0000 C.3     1  UNL1        0.0000
     13 C           2.9511   -1.0056    0.0000 C.3     1  UNL1        0.0584
     14 C           4.6453   -0.6455    0.0000 C.3     1  UNL1       -0.0566
     15 C           2.0000   -0.6966    0.0000 C.3     1  UNL1       -0.0384
     16 H           5.0835    1.6142    0.0000 H       1  UNL1        0.0354
     17 H           4.8831   -0.0782    0.0000 H       1  UNL1        0.0313
     18 H           5.5543   -0.5659    0.0000 H       1  UNL1        0.0313
     19 H           6.8539   -0.4508    0.0000 H       1  UNL1        0.0572
     20 H           7.0789    2.0342    0.0000 H       1  UNL1        0.0238
     21 H           6.9417    2.9002    0.0000 H       1  UNL1        0.0238
     22 H           5.9033    2.7630    0.0000 H       1  UNL1        0.0238
     23 H           5.0373    2.9002    0.0000 H       1  UNL1        0.0238
     24 H           4.9001    2.0342    0.0000 H       1  UNL1        0.0238
     25 H           6.0757    2.7630    0.0000 H       1  UNL1        0.0238
     26 H           4.1005    1.9173    0.0000 H       1  UNL1        0.0572
     27 H           7.9412    0.7212    0.0000 H       1  UNL1        0.0275
     28 H           8.3392    1.5024    0.0000 H       1  UNL1        0.0275
     29 H           7.5580    1.9005    0.0000 H       1  UNL1        0.0275
     30 H           2.8966    0.8333    0.0000 H       1  UNL1        0.0573
     31 H           3.8231   -0.9429    0.0000 H       1  UNL1        0.0365
     32 H           2.4903   -1.4204    0.0000 H       1  UNL1        0.0596
     33 H           4.4537   -1.2351    0.0000 H       1  UNL1        0.0236
     34 H           5.2349   -0.8371    0.0000 H       1  UNL1        0.0236
     35 H           4.8368   -0.0558    0.0000 H       1  UNL1        0.0236
     36 H           2.1916   -0.1069    0.0000 H       1  UNL1        0.0255
     37 H           1.4103   -0.5050    0.0000 H       1  UNL1        0.0255
     38 H           1.8084   -1.2862    0.0000 H       1  UNL1        0.0255
     39 H           2.6982   -2.3986    0.0000 H       1  UNL1        0.2098
@<TRIPOS>BOND
     1     1    13    1
     2     1    39    1
     3     2     3    1
     4     2     5    1
     5     2     7    1
     6     2     8    1
     7     3     4    1
     8     3     9    1
     9     3    16    1
    10     4     6    1
    11     4    17    1
    12     4    18    1
    13     5     6    2
    14     5    10    1
    15     6    19    1
    16     7    20    1
    17     7    21    1
    18     7    25    1
    19     8    22    1
    20     8    23    1
    21     8    24    1
    22     9    11    2
    23     9    26    1
    24    10    27    1
    25    10    28    1
    26    10    29    1
    27    11    12    1
    28    11    30    1
    29    12    13    1
    30    12    14    1
    31    12    31    1
    32    13    15    1
    33    13    32    1
    34    14    33    1
    35    14    34    1
    36    14    35    1
    37    15    36    1
    38    15    37    1
    39    15    38    1
