@<TRIPOS>MOLECULE
IMPHY015325
 44 45 0 0 0
SMALL
GASTEIGER

@<TRIPOS>ATOM
      1 O           7.2622    1.0104    0.0000 O.3     1  UNL1       -0.4571
      2 O           2.0000   -1.0137    0.0000 O.2     1  UNL1       -0.2924
      3 O           6.3904    2.5071    0.0000 O.2     1  UNL1       -0.2511
      4 C           4.5981    0.4863    0.0000 C.3     1  UNL1       -0.0240
      5 C           4.5981   -0.5137    0.0000 C.3     1  UNL1        0.0090
      6 C           3.7320    0.9863    0.0000 C.3     1  UNL1       -0.0331
      7 C           5.4920    1.0209    0.0000 C.3     1  UNL1       -0.0078
      8 C           2.8660    0.4863    0.0000 C.3     1  UNL1        0.0130
      9 C           6.3981    0.5071    0.0000 C.3     1  UNL1        0.1242
     10 C           3.7320   -1.0137    0.0000 C.2     1  UNL1        0.0008
     11 C           5.4920   -1.0484    0.0000 C.2     1  UNL1       -0.0738
     12 C           6.3981   -0.5346    0.0000 C.2     1  UNL1       -0.0360
     13 C           2.8660   -0.5137    0.0000 C.2     1  UNL1        0.1600
     14 C           3.7320    1.9863    0.0000 C.3     1  UNL1       -0.0617
     15 C           3.7320   -2.0137    0.0000 C.2     1  UNL1       -0.0687
     16 C           7.2622   -1.0379    0.0000 C.3     1  UNL1       -0.0403
     17 C           2.8660   -2.5137    0.0000 C.3     1  UNL1       -0.0434
     18 C           4.5981   -2.5137    0.0000 C.3     1  UNL1       -0.0434
     19 C           7.2583    2.0104    0.0000 C.2     1  UNL1        0.3045
     20 C           8.1224    2.5137    0.0000 C.3     1  UNL1        0.0333
     21 H           5.1374    0.1804    0.0000 H       1  UNL1        0.0314
     22 H           4.5933   -1.1337    0.0000 H       1  UNL1        0.0395
     23 H           4.2690    1.2963    0.0000 H       1  UNL1        0.0305
     24 H           5.8856    1.4999    0.0000 H       1  UNL1        0.0307
     25 H           5.0874    1.4907    0.0000 H       1  UNL1        0.0307
     26 H           2.6540    1.0689    0.0000 H       1  UNL1        0.0348
     27 H           2.2554    0.3786    0.0000 H       1  UNL1        0.0348
     28 H           6.9356    0.1981    0.0000 H       1  UNL1        0.0782
     29 H           5.4848   -1.6684    0.0000 H       1  UNL1        0.0579
     30 H           4.3520    1.9863    0.0000 H       1  UNL1        0.0233
     31 H           3.7320    2.6063    0.0000 H       1  UNL1        0.0233
     32 H           3.1120    1.9863    0.0000 H       1  UNL1        0.0233
     33 H           6.9501   -1.5736    0.0000 H       1  UNL1        0.0276
     34 H           7.7979   -1.3500    0.0000 H       1  UNL1        0.0276
     35 H           7.5742   -0.5022    0.0000 H       1  UNL1        0.0276
     36 H           2.5560   -1.9768    0.0000 H       1  UNL1        0.0274
     37 H           2.3291   -2.8237    0.0000 H       1  UNL1        0.0274
     38 H           3.1760   -3.0507    0.0000 H       1  UNL1        0.0274
     39 H           4.2881   -3.0507    0.0000 H       1  UNL1        0.0274
     40 H           5.1350   -2.8237    0.0000 H       1  UNL1        0.0274
     41 H           4.9081   -1.9768    0.0000 H       1  UNL1        0.0274
     42 H           8.4345    1.9780    0.0000 H       1  UNL1        0.0342
     43 H           8.6581    2.8258    0.0000 H       1  UNL1        0.0342
     44 H           7.8104    3.0495    0.0000 H       1  UNL1        0.0342
@<TRIPOS>BOND
     1     1     9    1
     2     1    19    1
     3     2    13    2
     4     3    19    2
     5     4     5    1
     6     4     6    1
     7     4     7    1
     8     4    21    1
     9     5    10    1
    10     5    11    1
    11     5    22    1
    12     6     8    1
    13     6    14    1
    14     6    23    1
    15     7     9    1
    16     7    24    1
    17     7    25    1
    18     8    13    1
    19     8    26    1
    20     8    27    1
    21     9    12    1
    22     9    28    1
    23    10    13    1
    24    10    15    2
    25    11    12    2
    26    11    29    1
    27    12    16    1
    28    14    30    1
    29    14    31    1
    30    14    32    1
    31    15    17    1
    32    15    18    1
    33    16    33    1
    34    16    34    1
    35    16    35    1
    36    17    36    1
    37    17    37    1
    38    17    38    1
    39    18    39    1
    40    18    40    1
    41    18    41    1
    42    19    20    1
    43    20    42    1
    44    20    43    1
    45    20    44    1
