@<TRIPOS>MOLECULE
IMPHY000683
 77 79 0 0 0
SMALL
GASTEIGER

@<TRIPOS>ATOM
      1 O           6.3130   -0.8053    0.0000 O.3     1  UNL1       -0.4498
      2 O           4.0035    1.5845    0.0000 O.3     1  UNL1       -0.4569
      3 O           4.3938   -1.9877    0.0000 O.2     1  UNL1       -0.2925
      4 O           3.2286   -3.2569    0.0000 O.3     1  UNL1       -0.4567
      5 O           7.8955    0.3028    0.0000 O.2     1  UNL1       -0.2511
      6 O           5.2927    2.7412    0.0000 O.2     1  UNL1       -0.2450
      7 O           4.3550   -1.0494    0.0000 O.2     1  UNL1       -0.2964
      8 O           4.6027   -4.3113    0.0000 O.2     1  UNL1       -0.2511
      9 C           5.3282   -0.6316    0.0000 C.3     1  UNL1        0.1810
     10 C           4.4622   -0.1316    0.0000 C.3     1  UNL1        0.0618
     11 C           5.6601    0.9433    0.0000 C.3     1  UNL1       -0.0019
     12 C           4.6714    0.8402    0.0000 C.3     1  UNL1        0.1164
     13 C           6.0652    0.0355    0.0000 C.3     1  UNL1        0.0009
     14 C           5.3282   -1.6316    0.0000 C.2     1  UNL1        0.1838
     15 C           3.5962   -0.6316    0.0000 C.2     1  UNL1       -0.0708
     16 C           6.1601    1.8093    0.0000 C.3     1  UNL1       -0.0589
     17 C           5.7692   -2.4636    0.0000 C.3     1  UNL1        0.0368
     18 C           3.3373   -1.5975    0.0000 C.2     1  UNL1       -0.0357
     19 C           3.8373   -2.4636    0.0000 C.3     1  UNL1        0.1305
     20 C           6.7351   -2.7224    0.0000 C.2     1  UNL1       -0.0770
     21 C           5.5530   -3.4399    0.0000 C.3     1  UNL1       -0.0521
     22 C           6.9558   -0.0392    0.0000 C.2     1  UNL1        0.3049
     23 C           4.3142    2.5350    0.0000 C.2     1  UNL1        0.3395
     24 C           2.3459   -1.7281    0.0000 C.3     1  UNL1       -0.0403
     25 C           4.8032   -2.7224    0.0000 C.3     1  UNL1        0.0477
     26 C           6.0280   -1.4976    0.0000 C.3     1  UNL1        0.0415
     27 C           6.9939   -1.7565    0.0000 C.2     1  UNL1       -0.0746
     28 C           5.0621   -1.7565    0.0000 C.2     1  UNL1        0.1464
     29 C           6.6138    0.9005    0.0000 C.3     1  UNL1        0.0333
     30 C           3.6464    3.2793    0.0000 C.ar    1  UNL1        0.0590
     31 C           6.9343   -1.0750    0.0000 C.3     1  UNL1       -0.0496
     32 C           5.6915   -0.2419    0.0000 C.3     1  UNL1       -0.0496
     33 C           3.9570    4.2298    0.0000 C.ar    1  UNL1       -0.0478
     34 C           2.6678    3.0731    0.0000 C.ar    1  UNL1       -0.0478
     35 C           3.6112   -4.1808    0.0000 C.2     1  UNL1        0.3045
     36 C           3.2892    4.9742    0.0000 C.ar    1  UNL1       -0.0610
     37 C           2.0000    3.8174    0.0000 C.ar    1  UNL1       -0.0610
     38 C           3.0025   -4.9742    0.0000 C.3     1  UNL1        0.0333
     39 C           2.3107    4.7679    0.0000 C.ar    1  UNL1       -0.0617
     40 H           3.7752    0.3689    0.0000 H       1  UNL1        0.0423
     41 H           5.3226    1.4634    0.0000 H       1  UNL1        0.0335
     42 H           4.0722    0.6810    0.0000 H       1  UNL1        0.0744
     43 H           6.4306   -0.4654    0.0000 H       1  UNL1        0.0312
     44 H           6.6017    0.3462    0.0000 H       1  UNL1        0.0312
     45 H           3.1043   -0.2542    0.0000 H       1  UNL1        0.0578
     46 H           6.6970    1.4993    0.0000 H       1  UNL1        0.0234
     47 H           6.4701    2.3462    0.0000 H       1  UNL1        0.0234
     48 H           5.6232    2.1193    0.0000 H       1  UNL1        0.0234
     49 H           5.1548   -2.5468    0.0000 H       1  UNL1        0.0419
     50 H           3.2186   -2.4230    0.0000 H       1  UNL1        0.0786
     51 H           7.0451   -3.2593    0.0000 H       1  UNL1        0.0576
     52 H           4.9476   -3.3059    0.0000 H       1  UNL1        0.0239
     53 H           5.4189   -4.0452    0.0000 H       1  UNL1        0.0239
     54 H           6.1583   -3.5740    0.0000 H       1  UNL1        0.0239
     55 H           2.2650   -1.1134    0.0000 H       1  UNL1        0.0276
     56 H           1.7312   -1.8090    0.0000 H       1  UNL1        0.0276
     57 H           2.4268   -2.3428    0.0000 H       1  UNL1        0.0276
     58 H           4.6428   -3.3213    0.0000 H       1  UNL1        0.0381
     59 H           5.4021   -2.8828    0.0000 H       1  UNL1        0.0381
     60 H           7.6139   -1.7565    0.0000 H       1  UNL1        0.0579
     61 H           7.1964    1.1125    0.0000 H       1  UNL1        0.0342
     62 H           6.4017    1.4831    0.0000 H       1  UNL1        0.0342
     63 H           6.0312    0.6884    0.0000 H       1  UNL1        0.0342
     64 H           7.1963   -1.6369    0.0000 H       1  UNL1        0.0242
     65 H           7.4962   -0.8130    0.0000 H       1  UNL1        0.0242
     66 H           6.6723   -0.5131    0.0000 H       1  UNL1        0.0242
     67 H           6.2904   -0.0815    0.0000 H       1  UNL1        0.0242
     68 H           5.5311    0.3569    0.0000 H       1  UNL1        0.0242
     69 H           5.0927   -0.4024    0.0000 H       1  UNL1        0.0242
     70 H           4.5637    4.3577    0.0000 H       1  UNL1        0.0626
     71 H           2.4752    2.4838    0.0000 H       1  UNL1        0.0626
     72 H           3.4818    5.5635    0.0000 H       1  UNL1        0.0618
     73 H           1.3933    3.6896    0.0000 H       1  UNL1        0.0618
     74 H           2.5106   -4.5967    0.0000 H       1  UNL1        0.0342
     75 H           2.6250   -5.4660    0.0000 H       1  UNL1        0.0342
     76 H           3.4944   -5.3516    0.0000 H       1  UNL1        0.0342
     77 H           1.8966    5.2294    0.0000 H       1  UNL1        0.0618
@<TRIPOS>BOND
     1     9     1    1
     2     1    22    1
     3    12     2    1
     4     2    23    1
     5     3    14    2
     6    19     4    1
     7     4    35    1
     8     5    22    2
     9     6    23    2
    10     7    28    2
    11     8    35    2
    12     9    10    1
    13     9    13    1
    14     9    14    1
    15    10    12    1
    16    10    15    1
    17    10    40    1
    18    11    12    1
    19    11    13    1
    20    11    16    1
    21    11    41    1
    22    12    42    1
    23    13    43    1
    24    13    44    1
    25    14    17    1
    26    15    18    2
    27    15    45    1
    28    16    46    1
    29    16    47    1
    30    16    48    1
    31    17    20    1
    32    17    21    1
    33    17    49    1
    34    18    19    1
    35    18    24    1
    36    19    25    1
    37    19    50    1
    38    20    27    2
    39    20    51    1
    40    21    52    1
    41    21    53    1
    42    21    54    1
    43    22    29    1
    44    23    30    1
    45    24    55    1
    46    24    56    1
    47    24    57    1
    48    25    28    1
    49    25    58    1
    50    25    59    1
    51    26    27    1
    52    26    28    1
    53    26    31    1
    54    26    32    1
    55    27    60    1
    56    29    61    1
    57    29    62    1
    58    29    63    1
    59    30    33   ar
    60    30    34   ar
    61    31    64    1
    62    31    65    1
    63    31    66    1
    64    32    67    1
    65    32    68    1
    66    32    69    1
    67    33    36   ar
    68    33    70    1
    69    34    37   ar
    70    34    71    1
    71    35    38    1
    72    36    39   ar
    73    36    72    1
    74    37    39   ar
    75    37    73    1
    76    38    74    1
    77    38    75    1
    78    38    76    1
    79    39    77    1
