@<TRIPOS>MOLECULE
IMPHY002671
 80 86 0 0 0
SMALL
GASTEIGER

@<TRIPOS>ATOM
      1 O           9.8716   -0.4021    0.0000 O.3     1  UNL1       -0.4510
      2 O           9.4560   -1.2420    0.0000 O.3     1  UNL1       -0.4501
      3 O           7.8893    0.5530    0.0000 O.3     1  UNL1       -0.4512
      4 O          11.2877    2.0135    0.0000 O.3     1  UNL1       -0.3832
      5 O           8.7503   -2.0169    0.0000 O.3     1  UNL1       -0.3846
      6 O           6.8679   -0.5376    0.0000 O.3     1  UNL1       -0.4584
      7 O          12.5377    2.1187    0.0000 O.3     1  UNL1       -0.5030
      8 O          11.7213   -1.2471    0.0000 O.2     1  UNL1       -0.2449
      9 O          14.2697   -0.8813    0.0000 O.3     1  UNL1       -0.5028
     10 O          14.2697    1.1187    0.0000 O.3     1  UNL1       -0.5009
     11 O           9.6405   -2.8629    0.0000 O.2     1  UNL1       -0.2449
     12 O          13.7303   -1.9341    0.0000 O.3     1  UNL1       -0.5028
     13 O           6.4365   -0.3042    0.0000 O.2     1  UNL1       -0.2449
     14 O          13.5327   -3.8664    0.0000 O.3     1  UNL1       -0.5009
     15 O          11.7704   -4.6831    0.0000 O.3     1  UNL1       -0.5032
     16 O           5.9107    1.1124    0.0000 O.2     1  UNL1       -0.2449
     17 O           5.2406    3.6768    0.0000 O.3     1  UNL1       -0.5028
     18 O           4.3635    3.2096    0.0000 O.3     1  UNL1       -0.5028
     19 O           8.7788    3.5695    0.0000 O.3     1  UNL1       -0.5032
     20 O           7.0409    4.6536    0.0000 O.3     1  UNL1       -0.5009
     21 O           2.5483    2.2606    0.0000 O.3     1  UNL1       -0.5009
     22 O           2.4784    0.2135    0.0000 O.3     1  UNL1       -0.5032
     23 C           9.8716    0.6395    0.0000 C.3     1  UNL1        0.1735
     24 C           9.3547   -0.2330    0.0000 C.3     1  UNL1        0.1819
     25 C          10.7777    1.1533    0.0000 C.3     1  UNL1        0.1249
     26 C           8.3594   -0.3296    0.0000 C.3     1  UNL1        0.1725
     27 C          11.6717    0.6187    0.0000 C.ar    1  UNL1        0.0444
     28 C           8.0678   -1.2861    0.0000 C.3     1  UNL1        0.1296
     29 C          11.6717   -0.3813    0.0000 C.ar    1  UNL1        0.0798
     30 C          12.5377   -0.8813    0.0000 C.ar    1  UNL1        0.0462
     31 C          10.7777   -0.9160    0.0000 C.2     1  UNL1        0.3408
     32 C          12.5377    1.1187    0.0000 C.ar    1  UNL1        0.1687
     33 C           7.0936   -1.5118    0.0000 C.3     1  UNL1        0.1222
     34 C          12.0498   -1.7703    0.0000 C.ar    1  UNL1        0.0458
     35 C          13.4037   -0.3813    0.0000 C.ar    1  UNL1        0.1708
     36 C          11.1297   -2.1967    0.0000 C.ar    1  UNL1        0.0740
     37 C          10.1360   -1.9943    0.0000 C.2     1  UNL1        0.3405
     38 C          13.4037    0.6187    0.0000 C.ar    1  UNL1        0.2016
     39 C          12.8154   -2.3378    0.0000 C.ar    1  UNL1        0.1708
     40 C           6.8899    0.5872    0.0000 C.2     1  UNL1        0.3405
     41 C          11.0677   -3.1477    0.0000 C.ar    1  UNL1       -0.0017
     42 C           6.9240    1.5866    0.0000 C.ar    1  UNL1        0.0740
     43 C          12.7185   -3.2859    0.0000 C.ar    1  UNL1        0.2012
     44 C          11.8538   -3.6866    0.0000 C.ar    1  UNL1        0.1628
     45 C           6.0756    2.1159    0.0000 C.ar    1  UNL1        0.0458
     46 C           6.0073    0.1171    0.0000 C.2     1  UNL1        0.3401
     47 C           5.1930    1.6458    0.0000 C.ar    1  UNL1        0.0458
     48 C           5.1588    0.6463    0.0000 C.ar    1  UNL1        0.0740
     49 C           7.8508    2.0621    0.0000 C.ar    1  UNL1       -0.0017
     50 C           6.0951    3.1573    0.0000 C.ar    1  UNL1        0.1708
     51 C           4.3178    2.2106    0.0000 C.ar    1  UNL1        0.1708
     52 C           7.8944    3.1028    0.0000 C.ar    1  UNL1        0.1628
     53 C           4.2471    0.1425    0.0000 C.ar    1  UNL1       -0.0017
     54 C           7.0106    3.6541    0.0000 C.ar    1  UNL1        0.2012
     55 C           3.3947    1.7280    0.0000 C.ar    1  UNL1        0.2012
     56 C           3.3592    0.6870    0.0000 C.ar    1  UNL1        0.1628
     57 H           9.2763    1.2462    0.0000 H       1  UNL1        0.0803
     58 H           8.6220    0.1979    0.0000 H       1  UNL1        0.0811
     59 H          10.4739    1.6938    0.0000 H       1  UNL1        0.0684
     60 H           8.8977   -0.9874    0.0000 H       1  UNL1        0.0801
     61 H           7.8869   -1.8791    0.0000 H       1  UNL1        0.0666
     62 H           6.4896   -1.6517    0.0000 H       1  UNL1        0.0725
     63 H           7.2335   -2.1158    0.0000 H       1  UNL1        0.0725
     64 H          10.9839    2.5540    0.0000 H       1  UNL1        0.2104
     65 H           8.5695   -2.6100    0.0000 H       1  UNL1        0.2101
     66 H          10.5101   -3.4187    0.0000 H       1  UNL1        0.0664
     67 H          13.0746    2.4287    0.0000 H       1  UNL1        0.2923
     68 H          14.8067   -0.5713    0.0000 H       1  UNL1        0.2923
     69 H          14.8067    0.8087    0.0000 H       1  UNL1        0.2924
     70 H           8.3730    1.7279    0.0000 H       1  UNL1        0.0664
     71 H          14.2307   -2.3002    0.0000 H       1  UNL1        0.2923
     72 H           4.2331   -0.4773    0.0000 H       1  UNL1        0.0664
     73 H          13.4734   -4.4836    0.0000 H       1  UNL1        0.2924
     74 H          11.2095   -4.9472    0.0000 H       1  UNL1        0.2923
     75 H           5.2546    4.2966    0.0000 H       1  UNL1        0.2923
     76 H           3.8413    3.5438    0.0000 H       1  UNL1        0.2923
     77 H           8.8024    4.1891    0.0000 H       1  UNL1        0.2923
     78 H           7.5870    4.9472    0.0000 H       1  UNL1        0.2924
     79 H           2.0000    1.9712    0.0000 H       1  UNL1        0.2924
     80 H           2.4596   -0.4062    0.0000 H       1  UNL1        0.2923
@<TRIPOS>BOND
     1     1    23    1
     2     1    31    1
     3     2    24    1
     4     2    37    1
     5     3    26    1
     6     3    40    1
     7    25     4    1
     8     4    64    1
     9    28     5    1
    10     5    65    1
    11     6    33    1
    12     6    46    1
    13     7    32    1
    14     7    67    1
    15     8    31    2
    16     9    35    1
    17     9    68    1
    18    10    38    1
    19    10    69    1
    20    11    37    2
    21    12    39    1
    22    12    71    1
    23    13    40    2
    24    14    43    1
    25    14    73    1
    26    15    44    1
    27    15    74    1
    28    16    46    2
    29    17    50    1
    30    17    75    1
    31    18    51    1
    32    18    76    1
    33    19    52    1
    34    19    77    1
    35    20    54    1
    36    20    78    1
    37    21    55    1
    38    21    79    1
    39    22    56    1
    40    22    80    1
    41    23    24    1
    42    23    25    1
    43    23    57    1
    44    24    26    1
    45    24    58    1
    46    25    27    1
    47    25    59    1
    48    26    28    1
    49    26    60    1
    50    27    29   ar
    51    27    32   ar
    52    28    33    1
    53    28    61    1
    54    29    30   ar
    55    29    31    1
    56    30    34    1
    57    30    35   ar
    58    32    38   ar
    59    33    62    1
    60    33    63    1
    61    34    36   ar
    62    34    39   ar
    63    35    38   ar
    64    36    37    1
    65    36    41   ar
    66    39    43   ar
    67    40    42    1
    68    41    44   ar
    69    41    66    1
    70    42    45   ar
    71    42    49   ar
    72    43    44   ar
    73    45    47    1
    74    45    50   ar
    75    46    48    1
    76    47    48   ar
    77    47    51   ar
    78    48    53   ar
    79    49    52   ar
    80    49    70    1
    81    50    54   ar
    82    51    55   ar
    83    52    54   ar
    84    53    56   ar
    85    53    72    1
    86    55    56   ar
