@<TRIPOS>MOLECULE
IMPHY005178
 59 61 0 0 0
SMALL
GASTEIGER

@<TRIPOS>ATOM
      1 O           4.2690   -0.9726    0.0000 O.3     1  UNL1       -0.3405
      2 O           6.0010   -0.9726    0.0000 O.3     1  UNL1       -0.3444
      3 O           5.0548    1.7226    0.0000 O.3     1  UNL1       -0.4533
      4 O           4.2690   -3.9726    0.0000 O.3     1  UNL1       -0.3864
      5 O           2.5369   -2.9726    0.0000 O.3     1  UNL1       -0.3865
      6 O           6.0010   -2.9726    0.0000 O.3     1  UNL1       -0.3841
      7 O           2.5369    0.0274    0.0000 O.3     1  UNL1       -0.3924
      8 O           3.4712    2.5274    0.0000 O.2     1  UNL1       -0.2453
      9 C           4.2690   -2.9726    0.0000 C.3     1  UNL1        0.1141
     10 C           3.4030   -2.4726    0.0000 C.3     1  UNL1        0.1119
     11 C           5.1350   -2.4726    0.0000 C.3     1  UNL1        0.1341
     12 C           3.4030   -1.4726    0.0000 C.3     1  UNL1        0.1130
     13 C           6.0010    3.0274    0.0000 C.3     1  UNL1        0.0314
     14 C           5.1350   -1.4726    0.0000 C.3     1  UNL1        0.1883
     15 C           6.0010    2.0274    0.0000 C.3     1  UNL1        0.1288
     16 C           6.8671    3.5274    0.0000 C.3     1  UNL1       -0.0386
     17 C           6.8671    0.5274    0.0000 C.2     1  UNL1       -0.0443
     18 C           6.8671    1.5274    0.0000 C.2     1  UNL1       -0.0420
     19 C           5.0548    3.3321    0.0000 C.2     1  UNL1        0.0364
     20 C           7.7331    3.0274    0.0000 C.3     1  UNL1       -0.0313
     21 C           2.5369   -0.9726    0.0000 C.3     1  UNL1        0.0730
     22 C           6.0010    0.0274    0.0000 C.3     1  UNL1        0.0720
     23 C           7.7331    0.0274    0.0000 C.3     1  UNL1       -0.0260
     24 C           7.7331    2.0274    0.0000 C.2     1  UNL1       -0.0765
     25 C           8.5991    0.5274    0.0000 C.3     1  UNL1       -0.0308
     26 C           4.4712    2.5274    0.0000 C.2     1  UNL1        0.3356
     27 C           8.5991    1.5274    0.0000 C.2     1  UNL1       -0.0847
     28 C           4.7442    4.2826    0.0000 C.2     1  UNL1       -0.0883
     29 C           6.5457    1.0311    0.0000 C.3     1  UNL1       -0.0438
     30 H           4.8059   -3.2826    0.0000 H       1  UNL1        0.0648
     31 H           2.8660   -2.1626    0.0000 H       1  UNL1        0.0647
     32 H           5.6720   -2.1626    0.0000 H       1  UNL1        0.0671
     33 H           3.4030   -0.8526    0.0000 H       1  UNL1        0.0647
     34 H           5.9111    3.8726    0.0000 H       1  UNL1        0.0390
     35 H           5.1350   -0.8526    0.0000 H       1  UNL1        0.0938
     36 H           5.9111    1.1822    0.0000 H       1  UNL1        0.0785
     37 H           7.2656    4.0023    0.0000 H       1  UNL1        0.0275
     38 H           6.4685    4.0023    0.0000 H       1  UNL1        0.0275
     39 H           7.0791    2.1100    0.0000 H       1  UNL1        0.0609
     40 H           8.3437    2.9197    0.0000 H       1  UNL1        0.0310
     41 H           7.9451    3.6100    0.0000 H       1  UNL1        0.0310
     42 H           1.9264   -0.8650    0.0000 H       1  UNL1        0.0584
     43 H           2.3249   -1.5552    0.0000 H       1  UNL1        0.0584
     44 H           5.7890    0.6100    0.0000 H       1  UNL1        0.0608
     45 H           5.3905   -0.0803    0.0000 H       1  UNL1        0.0608
     46 H           7.3346   -0.4476    0.0000 H       1  UNL1        0.0314
     47 H           8.1316   -0.4476    0.0000 H       1  UNL1        0.0314
     48 H           8.8112   -0.0552    0.0000 H       1  UNL1        0.0310
     49 H           9.2097    0.6350    0.0000 H       1  UNL1        0.0310
     50 H           3.7320   -4.2826    0.0000 H       1  UNL1        0.2100
     51 H           2.0000   -2.6626    0.0000 H       1  UNL1        0.2100
     52 H           6.5380   -2.6626    0.0000 H       1  UNL1        0.2101
     53 H           9.1360    1.8374    0.0000 H       1  UNL1        0.0572
     54 H           5.1582    4.7441    0.0000 H       1  UNL1        0.0540
     55 H           4.1375    4.4105    0.0000 H       1  UNL1        0.0540
     56 H           6.1472    1.5060    0.0000 H       1  UNL1        0.0274
     57 H           6.0707    0.6326    0.0000 H       1  UNL1        0.0274
     58 H           6.9442    0.5561    0.0000 H       1  UNL1        0.0274
     59 H           2.0000    0.3374    0.0000 H       1  UNL1        0.2095
@<TRIPOS>BOND
     1     1    12    1
     2     1    14    1
     3    14     2    1
     4     2    22    1
     5     3    15    1
     6     3    26    1
     7     9     4    1
     8     4    50    1
     9    10     5    1
    10     5    51    1
    11    11     6    1
    12     6    52    1
    13     7    21    1
    14     7    59    1
    15     8    26    2
    16     9    10    1
    17     9    11    1
    18     9    30    1
    19    10    12    1
    20    10    31    1
    21    11    14    1
    22    11    32    1
    23    12    21    1
    24    12    33    1
    25    13    15    1
    26    13    16    1
    27    13    19    1
    28    13    34    1
    29    14    35    1
    30    15    18    1
    31    15    36    1
    32    16    20    1
    33    16    37    1
    34    16    38    1
    35    17    18    2
    36    17    22    1
    37    17    23    1
    38    18    39    1
    39    19    26    1
    40    19    28    2
    41    20    24    1
    42    20    40    1
    43    20    41    1
    44    21    42    1
    45    21    43    1
    46    22    44    1
    47    22    45    1
    48    23    25    1
    49    23    46    1
    50    23    47    1
    51    24    27    2
    52    24    29    1
    53    25    27    1
    54    25    48    1
    55    25    49    1
    56    27    53    1
    57    28    54    1
    58    28    55    1
    59    29    56    1
    60    29    57    1
    61    29    58    1
