@<TRIPOS>MOLECULE
IMPHY016924
 16 18 0 0 0
SMALL
GASTEIGER
****
Copyright by the U.S. Sec. Commerce on behalf of U.S.A. All rights reserved.
@<TRIPOS>ATOM
      1 C           3.4935    0.6582    0.0000 C.3     1  UNL1        0.0040
      2 C           4.1010    1.5189    0.0000 C.3     1  UNL1       -0.0033
      3 C           2.5315    1.0126    0.0000 C.3     1  UNL1        0.0214
      4 C           3.4935    2.2784    0.0000 C.3     1  UNL1       -0.0153
      5 C           2.5315    1.9746    0.0000 C.3     1  UNL1        0.0186
      6 C           3.4935    3.2910    0.0000 C.3     1  UNL1       -0.0033
      7 H           4.4554    2.5821    0.0000 H       1  UNL1        0.0322
      8 C           1.6202    2.2784    0.0000 C.2     1  UNL1       -0.0270
      9 C           1.9746    2.7847    0.0000 C.3     1  UNL1        0.0040
     10 C           1.0126    1.5189    0.0000 C.2     1  UNL1       -0.0301
     11 C           1.3164    3.2403    0.0000 C.2     1  UNL1       -0.0049
     12 C           1.6202    0.6582    0.0000 C.2     1  UNL1       -0.0310
     13 C           0.0000    1.5189    0.0000 C.3     1  UNL1        0.0304
     14 C           2.5315    0.0000    0.0000 C.3     1  UNL1        0.0047
     15 C           2.5315    3.5947    0.0000 C.3     1  UNL1        0.0000
     16 C           4.3036    3.8479    0.0000 C.3     1  UNL1       -0.0003
@<TRIPOS>BOND
     1     1     3    1
     2     2     1    1
     3     3    12    1
     4     3    14    1
     5     4     2    1
     6     4     7    1
     7     5     3    1
     8     5     4    1
     9     5     9    1
    10     6     4    1
    11     6    16    1
    12     8     5    1
    13     8    11    2
    14     9    15    1
    15    10     8    1
    16    10    13    1
    17    12    10    2
    18    15     6    1
