@<TRIPOS>MOLECULE
IMPHY001767
 49 51 0 0 0
SMALL
GASTEIGER

@<TRIPOS>ATOM
      1 O           6.3507    0.8166    0.0000 O.3     1  UNL1       -0.4211
      2 O           7.6378    0.0735    0.0000 O.2     1  UNL1       -0.2494
      3 O           8.4676   -0.4058    0.0000 O.2     1  UNL1       -0.3007
      4 O           4.9857    2.5488    0.0000 O.3     1  UNL1       -0.5031
      5 O           2.7526   -1.5405    0.0000 O.2     1  UNL1       -0.2957
      6 C           5.8507   -0.7222    0.0000 C.3     1  UNL1        0.1067
      7 C           6.7167   -2.2222    0.0000 C.3     1  UNL1       -0.0243
      8 C           6.7167   -1.2222    0.0000 C.3     1  UNL1        0.0395
      9 C           4.9847   -1.2222    0.0000 C.3     1  UNL1       -0.0323
     10 C           5.8507   -2.7222    0.0000 C.3     1  UNL1       -0.0472
     11 C           4.9847   -2.2222    0.0000 C.3     1  UNL1       -0.0512
     12 C           5.0417   -0.1344    0.0000 C.ar    1  UNL1        0.0263
     13 C           6.6597   -0.1344    0.0000 C.2     1  UNL1        0.3239
     14 C           7.2167   -3.0882    0.0000 C.3     1  UNL1       -0.0591
     15 C           7.7167   -2.2222    0.0000 C.3     1  UNL1       -0.0591
     16 C           7.7015   -1.0486    0.0000 C.2     1  UNL1        0.1252
     17 C           5.3507    0.8166    0.0000 C.ar    1  UNL1        0.1780
     18 C           4.0263   -0.3667    0.0000 C.ar    1  UNL1        0.0224
     19 C           4.6657    1.6014    0.0000 C.ar    1  UNL1        0.1630
     20 C           3.6452    1.3927    0.0000 C.ar    1  UNL1        0.0010
     21 C           3.3233    0.4020    0.0000 C.ar    1  UNL1       -0.0441
     22 C           2.9789    2.1384    0.0000 C.3     1  UNL1       -0.0179
     23 C           3.7283   -1.3212    0.0000 C.2     1  UNL1        0.1506
     24 C           2.0000    1.9342    0.0000 C.3     1  UNL1       -0.0585
     25 C           3.2916    3.0882    0.0000 C.3     1  UNL1       -0.0585
     26 H           6.8244   -0.6116    0.0000 H       1  UNL1        0.0394
     27 H           4.7726   -0.6396    0.0000 H       1  UNL1        0.0279
     28 H           4.3741   -1.3299    0.0000 H       1  UNL1        0.0279
     29 H           5.4521   -3.1972    0.0000 H       1  UNL1        0.0271
     30 H           6.2492   -3.1972    0.0000 H       1  UNL1        0.0271
     31 H           4.3741   -2.1146    0.0000 H       1  UNL1        0.0266
     32 H           4.7726   -2.8048    0.0000 H       1  UNL1        0.0266
     33 H           7.7167   -2.8422    0.0000 H       1  UNL1        0.0235
     34 H           8.3367   -2.2222    0.0000 H       1  UNL1        0.0235
     35 H           7.7167   -1.6022    0.0000 H       1  UNL1        0.0235
     36 H           6.6798   -3.3982    0.0000 H       1  UNL1        0.0235
     37 H           7.5267   -3.6252    0.0000 H       1  UNL1        0.0235
     38 H           7.7536   -2.7782    0.0000 H       1  UNL1        0.0235
     39 H           8.1000   -1.5235    0.0000 H       1  UNL1        0.1030
     40 H           2.7174    0.2708    0.0000 H       1  UNL1        0.0628
     41 H           2.5659    2.6007    0.0000 H       1  UNL1        0.0345
     42 H           4.1484   -1.7772    0.0000 H       1  UNL1        0.1081
     43 H           5.5936    2.6707    0.0000 H       1  UNL1        0.2923
     44 H           1.8734    2.5412    0.0000 H       1  UNL1        0.0235
     45 H           3.8805    2.8944    0.0000 H       1  UNL1        0.0235
     46 H           1.3931    1.8077    0.0000 H       1  UNL1        0.0235
     47 H           2.1266    1.3273    0.0000 H       1  UNL1        0.0235
     48 H           3.4855    3.6772    0.0000 H       1  UNL1        0.0235
     49 H           2.7027    3.2821    0.0000 H       1  UNL1        0.0235
@<TRIPOS>BOND
     1     1    13    1
     2     1    17    1
     3     2    13    2
     4     3    16    2
     5     4    19    1
     6     4    43    1
     7     5    23    2
     8     6     8    1
     9     6     9    1
    10     6    12    1
    11     6    13    1
    12     7     8    1
    13     7    10    1
    14     7    14    1
    15     7    15    1
    16     8    16    1
    17     8    26    1
    18     9    11    1
    19     9    27    1
    20     9    28    1
    21    10    11    1
    22    10    29    1
    23    10    30    1
    24    11    31    1
    25    11    32    1
    26    12    17   ar
    27    12    18   ar
    28    14    36    1
    29    14    37    1
    30    14    38    1
    31    15    33    1
    32    15    34    1
    33    15    35    1
    34    16    39    1
    35    17    19   ar
    36    18    21   ar
    37    18    23    1
    38    19    20   ar
    39    20    21   ar
    40    20    22    1
    41    21    40    1
    42    22    24    1
    43    22    25    1
    44    22    41    1
    45    23    42    1
    46    24    44    1
    47    24    46    1
    48    24    47    1
    49    25    45    1
    50    25    48    1
    51    25    49    1
