@<TRIPOS>MOLECULE
IMPHY008086
 90 90 0 0 0
SMALL
GASTEIGER

@<TRIPOS>ATOM
      1 O          24.1506    0.6340    0.0000 O.3     1  UNL1       -0.3673
      2 O          17.5885   -0.0000    0.0000 O.3     1  UNL1       -0.4441
      3 O          16.7224   -1.5000    0.0000 O.2     1  UNL1       -0.2508
      4 C          24.6506    1.5000    0.0000 C.3     1  UNL1        0.0862
      5 C          23.6506    1.5000    0.0000 C.3     1  UNL1        0.0960
      6 C          25.5167    2.0000    0.0000 C.3     1  UNL1       -0.0241
      7 C          26.3827    1.5000    0.0000 C.3     1  UNL1       -0.0506
      8 C          22.7846    2.0000    0.0000 C.3     1  UNL1        0.0388
      9 C          27.2487    2.0000    0.0000 C.3     1  UNL1       -0.0527
     10 C          28.1147    1.5000    0.0000 C.3     1  UNL1       -0.0496
     11 C          21.9186    1.5000    0.0000 C.1     1  UNL1       -0.0858
     12 C          28.9808    2.0000    0.0000 C.3     1  UNL1       -0.0350
     13 C          21.0526    1.0000    0.0000 C.1     1  UNL1       -0.0146
     14 C          29.8468    1.5000    0.0000 C.2     1  UNL1       -0.0911
     15 C          13.2583   -0.5000    0.0000 C.3     1  UNL1       -0.0530
     16 C          12.3923   -0.0000    0.0000 C.3     1  UNL1       -0.0528
     17 C          14.1244   -0.0000    0.0000 C.3     1  UNL1       -0.0526
     18 C          11.5263   -0.5000    0.0000 C.3     1  UNL1       -0.0496
     19 C          14.9904   -0.5000    0.0000 C.3     1  UNL1       -0.0430
     20 C          30.7128    2.0000    0.0000 C.2     1  UNL1       -0.1026
     21 C          20.1865    0.5000    0.0000 C.1     1  UNL1       -0.0109
     22 C          10.6603   -0.0000    0.0000 C.3     1  UNL1       -0.0348
     23 C          15.8564   -0.0000    0.0000 C.3     1  UNL1        0.0450
     24 C           9.7942   -0.5000    0.0000 C.2     1  UNL1       -0.0876
     25 C          19.3205   -0.0000    0.0000 C.1     1  UNL1       -0.0400
     26 C          16.7224   -0.5000    0.0000 C.2     1  UNL1        0.3085
     27 C          18.4545   -0.5000    0.0000 C.3     1  UNL1        0.1821
     28 C           4.5981   -0.5000    0.0000 C.3     1  UNL1       -0.0496
     29 C           3.7320   -0.0000    0.0000 C.3     1  UNL1       -0.0530
     30 C           8.9282   -0.0000    0.0000 C.2     1  UNL1       -0.0842
     31 C           5.4641   -0.0000    0.0000 C.3     1  UNL1       -0.0348
     32 C           8.0622   -0.5000    0.0000 C.3     1  UNL1       -0.0165
     33 C           2.8660   -0.5000    0.0000 C.3     1  UNL1       -0.0559
     34 C           6.3301   -0.5000    0.0000 C.2     1  UNL1       -0.0876
     35 C           7.1962   -0.0000    0.0000 C.2     1  UNL1       -0.0842
     36 C          18.4545   -1.5000    0.0000 C.2     1  UNL1       -0.0389
     37 C           2.0000   -0.0000    0.0000 C.3     1  UNL1       -0.0653
     38 C          19.3205   -2.0000    0.0000 C.2     1  UNL1       -0.0982
     39 H          25.0890    1.0616    0.0000 H       1  UNL1        0.0622
     40 H          23.2122    1.0616    0.0000 H       1  UNL1        0.0631
     41 H          25.9152    2.4750    0.0000 H       1  UNL1        0.0291
     42 H          25.1181    2.4750    0.0000 H       1  UNL1        0.0291
     43 H          25.9842    1.0250    0.0000 H       1  UNL1        0.0266
     44 H          26.7812    1.0250    0.0000 H       1  UNL1        0.0266
     45 H          23.1831    2.4750    0.0000 H       1  UNL1        0.0424
     46 H          22.3861    2.4750    0.0000 H       1  UNL1        0.0424
     47 H          27.6472    2.4750    0.0000 H       1  UNL1        0.0265
     48 H          26.8502    2.4750    0.0000 H       1  UNL1        0.0265
     49 H          27.7162    1.0250    0.0000 H       1  UNL1        0.0268
     50 H          28.5133    1.0250    0.0000 H       1  UNL1        0.0268
     51 H          29.3793    2.4750    0.0000 H       1  UNL1        0.0307
     52 H          28.5822    2.4750    0.0000 H       1  UNL1        0.0307
     53 H          29.8468    0.8800    0.0000 H       1  UNL1        0.0566
     54 H          12.8598   -0.9749    0.0000 H       1  UNL1        0.0265
     55 H          13.6569   -0.9749    0.0000 H       1  UNL1        0.0265
     56 H          12.7908    0.4749    0.0000 H       1  UNL1        0.0265
     57 H          11.9938    0.4749    0.0000 H       1  UNL1        0.0265
     58 H          14.5229    0.4749    0.0000 H       1  UNL1        0.0265
     59 H          13.7258    0.4749    0.0000 H       1  UNL1        0.0265
     60 H          11.1278   -0.9749    0.0000 H       1  UNL1        0.0268
     61 H          11.9248   -0.9749    0.0000 H       1  UNL1        0.0268
     62 H          14.5919   -0.9749    0.0000 H       1  UNL1        0.0270
     63 H          15.3889   -0.9749    0.0000 H       1  UNL1        0.0270
     64 H          31.2497    1.6900    0.0000 H       1  UNL1        0.0532
     65 H          30.7128    2.6200    0.0000 H       1  UNL1        0.0532
     66 H          11.0588    0.4749    0.0000 H       1  UNL1        0.0307
     67 H          10.2617    0.4749    0.0000 H       1  UNL1        0.0307
     68 H          16.2549    0.4749    0.0000 H       1  UNL1        0.0377
     69 H          15.4579    0.4749    0.0000 H       1  UNL1        0.0377
     70 H           9.7942   -1.1200    0.0000 H       1  UNL1        0.0569
     71 H          18.4545    0.1200    0.0000 H       1  UNL1        0.0921
     72 H           4.1996   -0.9749    0.0000 H       1  UNL1        0.0268
     73 H           4.9966   -0.9749    0.0000 H       1  UNL1        0.0268
     74 H           4.1306    0.4749    0.0000 H       1  UNL1        0.0265
     75 H           3.3335    0.4749    0.0000 H       1  UNL1        0.0265
     76 H           8.9282    0.6200    0.0000 H       1  UNL1        0.0572
     77 H           5.8626    0.4749    0.0000 H       1  UNL1        0.0307
     78 H           5.0656    0.4749    0.0000 H       1  UNL1        0.0307
     79 H           7.6636   -0.9749    0.0000 H       1  UNL1        0.0350
     80 H           8.4607   -0.9749    0.0000 H       1  UNL1        0.0350
     81 H           2.4675   -0.9749    0.0000 H       1  UNL1        0.0263
     82 H           3.2646   -0.9749    0.0000 H       1  UNL1        0.0263
     83 H           6.3301   -1.1200    0.0000 H       1  UNL1        0.0569
     84 H           7.1962    0.6200    0.0000 H       1  UNL1        0.0572
     85 H          17.9175   -1.8100    0.0000 H       1  UNL1        0.0613
     86 H           2.3100    0.5369    0.0000 H       1  UNL1        0.0230
     87 H           1.4631    0.3100    0.0000 H       1  UNL1        0.0230
     88 H           1.6900   -0.5369    0.0000 H       1  UNL1        0.0230
     89 H          19.3205   -2.6200    0.0000 H       1  UNL1        0.0533
     90 H          19.8574   -1.6900    0.0000 H       1  UNL1        0.0533
@<TRIPOS>BOND
     1     1     4    1
     2     1     5    1
     3     2    26    1
     4     2    27    1
     5     3    26    2
     6     4     5    1
     7     4     6    1
     8     4    39    1
     9     5     8    1
    10     5    40    1
    11     6     7    1
    12     6    41    1
    13     6    42    1
    14     7     9    1
    15     7    43    1
    16     7    44    1
    17     8    11    1
    18     8    45    1
    19     8    46    1
    20     9    10    1
    21     9    47    1
    22     9    48    1
    23    10    12    1
    24    10    49    1
    25    10    50    1
    26    11    13    3
    27    12    14    1
    28    12    51    1
    29    12    52    1
    30    13    21    1
    31    14    20    2
    32    14    53    1
    33    15    16    1
    34    15    17    1
    35    15    54    1
    36    15    55    1
    37    16    18    1
    38    16    56    1
    39    16    57    1
    40    17    19    1
    41    17    58    1
    42    17    59    1
    43    18    22    1
    44    18    60    1
    45    18    61    1
    46    19    23    1
    47    19    62    1
    48    19    63    1
    49    20    64    1
    50    20    65    1
    51    21    25    3
    52    22    24    1
    53    22    66    1
    54    22    67    1
    55    23    26    1
    56    23    68    1
    57    23    69    1
    58    24    30    2
    59    24    70    1
    60    25    27    1
    61    27    36    1
    62    27    71    1
    63    28    29    1
    64    28    31    1
    65    28    72    1
    66    28    73    1
    67    29    33    1
    68    29    74    1
    69    29    75    1
    70    30    32    1
    71    30    76    1
    72    31    34    1
    73    31    77    1
    74    31    78    1
    75    32    35    1
    76    32    79    1
    77    32    80    1
    78    33    37    1
    79    33    81    1
    80    33    82    1
    81    34    35    2
    82    34    83    1
    83    35    84    1
    84    36    38    2
    85    36    85    1
    86    37    86    1
    87    37    87    1
    88    37    88    1
    89    38    89    1
    90    38    90    1
