@<TRIPOS>MOLECULE
IMPHY005954
 59 61 0 0 0
SMALL
GASTEIGER

@<TRIPOS>ATOM
      1 O           7.5836   -1.6958    0.0000 O.3     1  UNL1       -0.4803
      2 O           5.0000   -0.8910    0.0000 O.3     1  UNL1       -0.4547
      3 O           7.2730    0.8642    0.0000 O.3     1  UNL1       -0.4492
      4 O           9.3798    1.1505    0.0000 O.2     1  UNL1       -0.4216
      5 O           5.0000   -2.6231    0.0000 O.2     1  UNL1       -0.2508
      6 O           8.4297    2.1534    0.0000 O.2     1  UNL1       -0.2453
      7 O          10.2740    2.6782    0.0000 O.2     1  UNL1       -0.2452
      8 C           7.0000   -0.8910    0.0000 C.3     1  UNL1        0.1800
      9 C           6.0000   -0.8910    0.0000 C.3     1  UNL1        0.1483
     10 C           7.5836   -0.0863    0.0000 C.3     1  UNL1        0.1755
     11 C           8.5298   -0.3910    0.0000 C.ar    1  UNL1        0.0810
     12 C           8.5298   -1.3910    0.0000 C.ar    1  UNL1        0.1317
     13 C           6.0000   -1.8910    0.0000 C.3     1  UNL1       -0.0214
     14 C           6.0000    0.1090    0.0000 C.3     1  UNL1       -0.0214
     15 C           9.3958    0.1090    0.0000 C.ar    1  UNL1        0.1494
     16 C           9.3958   -1.8910    0.0000 C.ar    1  UNL1       -0.0187
     17 C          10.2619   -0.3910    0.0000 C.ar    1  UNL1        0.0182
     18 C          10.2619   -1.3910    0.0000 C.ar    1  UNL1       -0.0476
     19 C           4.5000   -1.7570    0.0000 C.2     1  UNL1        0.3079
     20 C           3.5000   -1.7570    0.0000 C.3     1  UNL1        0.0473
     21 C           3.0000   -2.6231    0.0000 C.3     1  UNL1       -0.0367
     22 C           7.4792    1.8427    0.0000 C.2     1  UNL1        0.3353
     23 C          11.1719    0.1158    0.0000 C.ar    1  UNL1       -0.0443
     24 C          10.2778    1.6782    0.0000 C.ar    1  UNL1        0.3372
     25 C          11.1799    1.1574    0.0000 C.ar    1  UNL1        0.0236
     26 C           6.7349    2.5106    0.0000 C.2     1  UNL1        0.0294
     27 C           2.0000   -2.6231    0.0000 C.3     1  UNL1       -0.0622
     28 C           3.5000   -3.4891    0.0000 C.3     1  UNL1       -0.0622
     29 C           6.9411    3.4891    0.0000 C.3     1  UNL1       -0.0333
     30 C           5.7843    2.1999    0.0000 C.2     1  UNL1       -0.0774
     31 C           5.5781    1.2214    0.0000 C.3     1  UNL1       -0.0461
     32 H           6.7183   -1.4433    0.0000 H       1  UNL1        0.0815
     33 H           6.9711    0.0099    0.0000 H       1  UNL1        0.0827
     34 H           5.3800   -1.8910    0.0000 H       1  UNL1        0.0269
     35 H           6.0000   -2.5110    0.0000 H       1  UNL1        0.0269
     36 H           6.6200   -1.8910    0.0000 H       1  UNL1        0.0269
     37 H           6.6200    0.1090    0.0000 H       1  UNL1        0.0269
     38 H           6.0000    0.7290    0.0000 H       1  UNL1        0.0269
     39 H           5.3800    0.1090    0.0000 H       1  UNL1        0.0269
     40 H           9.3958   -2.5110    0.0000 H       1  UNL1        0.0654
     41 H          10.7988   -1.7010    0.0000 H       1  UNL1        0.0626
     42 H           3.6077   -1.1465    0.0000 H       1  UNL1        0.0380
     43 H           2.9174   -1.5450    0.0000 H       1  UNL1        0.0380
     44 H           2.6900   -2.0861    0.0000 H       1  UNL1        0.0301
     45 H          11.7052   -0.2004    0.0000 H       1  UNL1        0.0627
     46 H          11.7180    1.4654    0.0000 H       1  UNL1        0.0689
     47 H           2.0000   -2.0031    0.0000 H       1  UNL1        0.0232
     48 H           1.3800   -2.6231    0.0000 H       1  UNL1        0.0232
     49 H           2.0000   -3.2431    0.0000 H       1  UNL1        0.0232
     50 H           2.9631   -3.7991    0.0000 H       1  UNL1        0.0232
     51 H           3.8100   -4.0260    0.0000 H       1  UNL1        0.0232
     52 H           4.0369   -3.1791    0.0000 H       1  UNL1        0.0232
     53 H           7.5478    3.3612    0.0000 H       1  UNL1        0.0280
     54 H           7.0689    4.0958    0.0000 H       1  UNL1        0.0280
     55 H           6.3344    3.6170    0.0000 H       1  UNL1        0.0280
     56 H           5.3229    2.6140    0.0000 H       1  UNL1        0.0574
     57 H           4.9714    1.3493    0.0000 H       1  UNL1        0.0272
     58 H           5.4503    0.6147    0.0000 H       1  UNL1        0.0272
     59 H           6.1848    1.0936    0.0000 H       1  UNL1        0.0272
@<TRIPOS>BOND
     1     1     8    1
     2     1    12    1
     3     2     9    1
     4     2    19    1
     5     3    10    1
     6     3    22    1
     7     4    15   ar
     8     4    24   ar
     9     5    19    2
    10     6    22    2
    11     7    24    2
    12     8     9    1
    13     8    10    1
    14     8    32    1
    15     9    13    1
    16     9    14    1
    17    10    11    1
    18    10    33    1
    19    11    12   ar
    20    11    15   ar
    21    12    16   ar
    22    13    34    1
    23    13    35    1
    24    13    36    1
    25    14    37    1
    26    14    38    1
    27    14    39    1
    28    15    17   ar
    29    16    18   ar
    30    16    40    1
    31    17    18   ar
    32    17    23   ar
    33    18    41    1
    34    19    20    1
    35    20    21    1
    36    20    42    1
    37    20    43    1
    38    21    27    1
    39    21    28    1
    40    21    44    1
    41    22    26    1
    42    23    25   ar
    43    23    45    1
    44    24    25   ar
    45    25    46    1
    46    26    29    1
    47    26    30    2
    48    27    47    1
    49    27    48    1
    50    27    49    1
    51    28    50    1
    52    28    51    1
    53    28    52    1
    54    29    53    1
    55    29    54    1
    56    29    55    1
    57    30    31    1
    58    30    56    1
    59    31    57    1
    60    31    58    1
    61    31    59    1
