@<TRIPOS>MOLECULE
IMPHY006902
 58 59 0 0 0
SMALL
GASTEIGER

@<TRIPOS>ATOM
      1 O           4.0595   -0.3329    0.0000 O.3     1  UNL1       -0.3944
      2 O           5.2446    3.6390    0.0000 O.3     1  UNL1       -0.3944
      3 O           8.5906   -1.4947    0.0000 O.3     1  UNL1       -0.3907
      4 O           7.4841   -3.8979    0.0000 O.3     1  UNL1       -0.3910
      5 C           5.3388    0.8347    0.0000 C.3     1  UNL1        0.0002
      6 C           4.3911    1.1347    0.0000 C.3     1  UNL1       -0.0247
      7 C           4.3861    2.1347    0.0000 C.3     1  UNL1        0.0012
      8 C           5.9184    1.6423    0.0000 C.3     1  UNL1       -0.0353
      9 C           5.3308    2.4441    0.0000 C.3     1  UNL1       -0.0415
     10 C           3.6124    0.5073    0.0000 C.3     1  UNL1       -0.0456
     11 C           3.6012    2.7543    0.0000 C.3     1  UNL1       -0.0240
     12 C           6.1518    0.2524    0.0000 C.3     1  UNL1       -0.0410
     13 C           5.0362   -0.1184    0.0000 C.3     1  UNL1        0.0504
     14 C           4.3811    3.1347    0.0000 C.3     1  UNL1        0.0504
     15 C           6.9184    1.6473    0.0000 C.3     1  UNL1       -0.0618
     16 C           2.6364    0.7250    0.0000 C.3     1  UNL1       -0.0342
     17 C           2.6274    2.5269    0.0000 C.2     1  UNL1       -0.0759
     18 C           6.0539   -0.7429    0.0000 C.3     1  UNL1       -0.0289
     19 C           2.1980    1.6238    0.0000 C.2     1  UNL1       -0.0850
     20 C           2.0000    3.3056    0.0000 C.3     1  UNL1       -0.0438
     21 C           6.8669   -1.3252    0.0000 C.2     1  UNL1       -0.0463
     22 C           7.7777   -0.9123    0.0000 C.3     1  UNL1        0.0654
     23 C           6.7690   -2.3204    0.0000 C.2     1  UNL1       -0.0576
     24 C           7.5820   -2.9027    0.0000 C.3     1  UNL1        0.0627
     25 H           4.5481    0.2993    0.0000 H       1  UNL1        0.0313
     26 H           6.2029    1.0914    0.0000 H       1  UNL1        0.0304
     27 H           5.8666    2.7560    0.0000 H       1  UNL1        0.0274
     28 H           5.0770    3.0098    0.0000 H       1  UNL1        0.0274
     29 H           3.3462   -0.0526    0.0000 H       1  UNL1        0.0271
     30 H           4.0990    0.1232    0.0000 H       1  UNL1        0.0271
     31 H           4.0840    3.1432    0.0000 H       1  UNL1        0.0316
     32 H           3.3294    3.3115    0.0000 H       1  UNL1        0.0316
     33 H           6.7489    0.0855    0.0000 H       1  UNL1        0.0275
     34 H           6.4198    0.8114    0.0000 H       1  UNL1        0.0275
     35 H           5.0620   -0.7379    0.0000 H       1  UNL1        0.0563
     36 H           5.6507   -0.2006    0.0000 H       1  UNL1        0.0563
     37 H           4.1662    3.7162    0.0000 H       1  UNL1        0.0563
     38 H           3.7711    3.0240    0.0000 H       1  UNL1        0.0563
     39 H           6.9215    1.0273    0.0000 H       1  UNL1        0.0233
     40 H           7.5384    1.6504    0.0000 H       1  UNL1        0.0233
     41 H           6.9153    2.2673    0.0000 H       1  UNL1        0.0233
     42 H           2.0326    0.5840    0.0000 H       1  UNL1        0.0307
     43 H           2.6395    0.1050    0.0000 H       1  UNL1        0.0307
     44 H           5.4568   -0.5760    0.0000 H       1  UNL1        0.0311
     45 H           5.7859   -1.3019    0.0000 H       1  UNL1        0.0311
     46 H           1.5780    1.6207    0.0000 H       1  UNL1        0.0572
     47 H           3.8719   -0.9238    0.0000 H       1  UNL1        0.2094
     48 H           5.2416    4.2590    0.0000 H       1  UNL1        0.2094
     49 H           2.4828    3.6946    0.0000 H       1  UNL1        0.0274
     50 H           1.6110    3.7884    0.0000 H       1  UNL1        0.0274
     51 H           1.5172    2.9166    0.0000 H       1  UNL1        0.0274
     52 H           8.2208   -0.4786    0.0000 H       1  UNL1        0.0604
     53 H           7.4275   -0.4007    0.0000 H       1  UNL1        0.0604
     54 H           6.2043   -2.5764    0.0000 H       1  UNL1        0.0595
     55 H           8.1791   -3.0696    0.0000 H       1  UNL1        0.0601
     56 H           7.8500   -2.3437    0.0000 H       1  UNL1        0.0601
     57 H           9.1553   -1.2387    0.0000 H       1  UNL1        0.2098
     58 H           7.9882   -4.2590    0.0000 H       1  UNL1        0.2098
@<TRIPOS>BOND
     1     1    13    1
     2     1    47    1
     3     2    14    1
     4     2    48    1
     5     3    22    1
     6     3    57    1
     7     4    24    1
     8     4    58    1
     9     5     6    1
    10     5     8    1
    11     5    12    1
    12     5    13    1
    13     6     7    1
    14     6    10    1
    15     6    25    1
    16     7     9    1
    17     7    11    1
    18     7    14    1
    19     8     9    1
    20     8    15    1
    21     8    26    1
    22     9    27    1
    23     9    28    1
    24    10    16    1
    25    10    29    1
    26    10    30    1
    27    11    17    1
    28    11    31    1
    29    11    32    1
    30    12    18    1
    31    12    33    1
    32    12    34    1
    33    13    35    1
    34    13    36    1
    35    14    37    1
    36    14    38    1
    37    15    39    1
    38    15    40    1
    39    15    41    1
    40    16    19    1
    41    16    42    1
    42    16    43    1
    43    17    19    2
    44    17    20    1
    45    18    21    1
    46    18    44    1
    47    18    45    1
    48    19    46    1
    49    20    49    1
    50    20    50    1
    51    20    51    1
    52    21    22    1
    53    21    23    2
    54    22    52    1
    55    22    53    1
    56    23    24    1
    57    23    54    1
    58    24    55    1
    59    24    56    1
