@<TRIPOS>MOLECULE
IMPHY017850
 56 57 0 0 0
SMALL
GASTEIGER

@<TRIPOS>ATOM
      1 O           2.6340    2.4720    0.0000 O.3     1  UNL1       -0.3912
      2 O           3.5000   -3.0280    0.0000 O.3     1  UNL1       -0.3848
      3 C           5.2320    0.9720    0.0000 C.3     1  UNL1       -0.0221
      4 C           5.2320    1.9720    0.0000 C.3     1  UNL1       -0.0273
      5 C           4.3660    2.4720    0.0000 C.3     1  UNL1       -0.0056
      6 C           4.3660    0.4720    0.0000 C.3     1  UNL1       -0.0326
      7 C           3.5000    1.9720    0.0000 C.3     1  UNL1        0.0609
      8 C           3.5000    0.9720    0.0000 C.3     1  UNL1       -0.0230
      9 C           6.1260    0.4373    0.0000 C.3     1  UNL1       -0.0260
     10 C           6.1260    2.5066    0.0000 C.3     1  UNL1       -0.0454
     11 C           5.2320   -0.0280    0.0000 C.3     1  UNL1       -0.0587
     12 C           4.3660   -0.5280    0.0000 C.3     1  UNL1       -0.0467
     13 C           7.0321    1.9928    0.0000 C.3     1  UNL1       -0.0317
     14 C           3.8660    3.3380    0.0000 C.3     1  UNL1       -0.0572
     15 C           4.8660    3.3380    0.0000 C.3     1  UNL1       -0.0572
     16 C           7.0321    0.9512    0.0000 C.2     1  UNL1       -0.0761
     17 C           3.5000   -1.0280    0.0000 C.3     1  UNL1       -0.0204
     18 C           3.5000   -2.0280    0.0000 C.3     1  UNL1        0.0811
     19 C           7.8962    0.4478    0.0000 C.2     1  UNL1       -0.0994
     20 C           4.5000   -2.0280    0.0000 C.3     1  UNL1       -0.0325
     21 C           2.5000   -2.0280    0.0000 C.2     1  UNL1       -0.0602
     22 C           2.0000   -1.1620    0.0000 C.2     1  UNL1       -0.1000
     23 H           5.2273    2.5920    0.0000 H       1  UNL1        0.0312
     24 H           3.8291    0.1620    0.0000 H       1  UNL1        0.0307
     25 H           3.5000    2.5920    0.0000 H       1  UNL1        0.0599
     26 H           2.8894    1.0796    0.0000 H       1  UNL1        0.0293
     27 H           3.2880    0.3894    0.0000 H       1  UNL1        0.0293
     28 H           5.7214   -0.0325    0.0000 H       1  UNL1        0.0315
     29 H           6.5196   -0.0417    0.0000 H       1  UNL1        0.0315
     30 H           6.5196    2.9857    0.0000 H       1  UNL1        0.0271
     31 H           5.7214    2.9764    0.0000 H       1  UNL1        0.0271
     32 H           4.6120   -0.0280    0.0000 H       1  UNL1        0.0235
     33 H           5.2320   -0.6480    0.0000 H       1  UNL1        0.0235
     34 H           5.8520   -0.0280    0.0000 H       1  UNL1        0.0235
     35 H           4.5781   -1.1106    0.0000 H       1  UNL1        0.0269
     36 H           4.9766   -0.4204    0.0000 H       1  UNL1        0.0269
     37 H           7.6429    1.8867    0.0000 H       1  UNL1        0.0310
     38 H           7.2411    2.5765    0.0000 H       1  UNL1        0.0310
     39 H           4.4030    3.6480    0.0000 H       1  UNL1        0.0236
     40 H           3.5560    3.8750    0.0000 H       1  UNL1        0.0236
     41 H           3.3291    3.0280    0.0000 H       1  UNL1        0.0236
     42 H           5.4030    3.0280    0.0000 H       1  UNL1        0.0236
     43 H           5.1760    3.8750    0.0000 H       1  UNL1        0.0236
     44 H           4.3291    3.6480    0.0000 H       1  UNL1        0.0236
     45 H           3.2880   -0.4454    0.0000 H       1  UNL1        0.0296
     46 H           2.8894   -1.1357    0.0000 H       1  UNL1        0.0296
     47 H           2.0970    2.1620    0.0000 H       1  UNL1        0.2098
     48 H           7.8938   -0.1722    0.0000 H       1  UNL1        0.0534
     49 H           8.4343    0.7558    0.0000 H       1  UNL1        0.0534
     50 H           4.5000   -2.6480    0.0000 H       1  UNL1        0.0260
     51 H           5.1200   -2.0280    0.0000 H       1  UNL1        0.0260
     52 H           4.5000   -1.4080    0.0000 H       1  UNL1        0.0260
     53 H           2.1900   -2.5650    0.0000 H       1  UNL1        0.0594
     54 H           2.9631   -3.3380    0.0000 H       1  UNL1        0.2106
     55 H           2.3100   -0.6251    0.0000 H       1  UNL1        0.0533
     56 H           1.3800   -1.1620    0.0000 H       1  UNL1        0.0533
@<TRIPOS>BOND
     1     7     1    1
     2     1    47    1
     3     2    18    1
     4     2    54    1
     5     3     4    1
     6     3     6    1
     7     3     9    1
     8     3    11    1
     9     4     5    1
    10     4    10    1
    11     4    23    1
    12     5     7    1
    13     5    14    1
    14     5    15    1
    15     6     8    1
    16     6    12    1
    17     6    24    1
    18     7     8    1
    19     7    25    1
    20     8    26    1
    21     8    27    1
    22     9    16    1
    23     9    28    1
    24     9    29    1
    25    10    13    1
    26    10    30    1
    27    10    31    1
    28    11    32    1
    29    11    33    1
    30    11    34    1
    31    12    17    1
    32    12    35    1
    33    12    36    1
    34    13    16    1
    35    13    37    1
    36    13    38    1
    37    14    39    1
    38    14    40    1
    39    14    41    1
    40    15    42    1
    41    15    43    1
    42    15    44    1
    43    16    19    2
    44    17    18    1
    45    17    45    1
    46    17    46    1
    47    18    20    1
    48    18    21    1
    49    19    48    1
    50    19    49    1
    51    20    50    1
    52    20    51    1
    53    20    52    1
    54    21    22    2
    55    21    53    1
    56    22    55    1
    57    22    56    1
