@<TRIPOS>MOLECULE
IMPHY008026
 42 46 0 0 0
SMALL
GASTEIGER

@<TRIPOS>ATOM
      1 O           9.8050   -0.4814    0.0000 O.3     1  UNL1       -0.4526
      2 O           9.8050   -2.0909    0.0000 O.3     1  UNL1       -0.4526
      3 O           3.3969    2.2139    0.0000 O.3     1  UNL1       -0.4526
      4 O           2.0000    1.4146    0.0000 O.3     1  UNL1       -0.4525
      5 O           3.5908   -1.7586    0.0000 O.3     1  UNL1       -0.5060
      6 O           7.1277    2.2383    0.0000 O.2     1  UNL1       -0.2790
      7 N           6.2443    0.7484    0.0000 N.am    1  UNL1       -0.2759
      8 C           7.1267   -0.7861    0.0000 C.ar    1  UNL1        0.0078
      9 C           6.2328   -0.2515    0.0000 C.ar    1  UNL1        0.0514
     10 C           5.3267   -0.7653    0.0000 C.ar    1  UNL1        0.0077
     11 C           7.1267   -1.7862    0.0000 C.ar    1  UNL1       -0.0124
     12 C           4.4626   -0.2620    0.0000 C.ar    1  UNL1        0.0290
     13 C           7.9928   -0.2861    0.0000 C.ar    1  UNL1       -0.0066
     14 C           5.3267   -1.8070    0.0000 C.ar    1  UNL1       -0.0515
     15 C           6.2328   -2.3208    0.0000 C.ar    1  UNL1       -0.0532
     16 C           8.8588   -0.7861    0.0000 C.ar    1  UNL1        0.1669
     17 C           7.9928   -2.2862    0.0000 C.ar    1  UNL1       -0.0084
     18 C           8.8588   -1.7862    0.0000 C.ar    1  UNL1        0.1668
     19 C           4.4665    0.7380    0.0000 C.ar    1  UNL1       -0.0049
     20 C           3.5947   -0.7587    0.0000 C.ar    1  UNL1        0.1283
     21 C           3.6024    1.2413    0.0000 C.ar    1  UNL1        0.1670
     22 C           2.7344    0.7447    0.0000 C.ar    1  UNL1        0.1697
     23 C           2.7306   -0.2553    0.0000 C.ar    1  UNL1        0.0259
     24 C          10.3886   -1.2861    0.0000 C.3     1  UNL1        0.2332
     25 C           5.3842    1.2584    0.0000 C.3     1  UNL1        0.0081
     26 C           2.4086    2.3208    0.0000 C.3     1  UNL1        0.2332
     27 C           7.1161    1.2384    0.0000 C.2     1  UNL1        0.2065
     28 H           7.9928    0.3339    0.0000 H       1  UNL1        0.0662
     29 H           4.7910   -2.1190    0.0000 H       1  UNL1        0.0624
     30 H           6.2400   -2.9408    0.0000 H       1  UNL1        0.0624
     31 H           7.9928   -2.9061    0.0000 H       1  UNL1        0.0661
     32 H           5.0046    1.0459    0.0000 H       1  UNL1        0.0663
     33 H           2.1925   -0.5632    0.0000 H       1  UNL1        0.0692
     34 H          10.8495   -1.7009    0.0000 H       1  UNL1        0.1166
     35 H          10.8495   -0.8714    0.0000 H       1  UNL1        0.1166
     36 H           5.7004    1.7917    0.0000 H       1  UNL1        0.0432
     37 H           4.8508    1.5746    0.0000 H       1  UNL1        0.0432
     38 H           5.0680    0.7251    0.0000 H       1  UNL1        0.0432
     39 H           2.5397    2.9268    0.0000 H       1  UNL1        0.1166
     40 H           1.8198    2.5148    0.0000 H       1  UNL1        0.1166
     41 H           7.6494    0.9222    0.0000 H       1  UNL1        0.1257
     42 H           3.0527   -2.0666    0.0000 H       1  UNL1        0.2922
@<TRIPOS>BOND
     1     1    16    1
     2     1    24    1
     3     2    18    1
     4     2    24    1
     5     3    21    1
     6     3    26    1
     7     4    22    1
     8     4    26    1
     9     5    20    1
    10     5    42    1
    11     6    27    2
    12     7     9    1
    13     7    25    1
    14     7    27   am
    15     8     9   ar
    16     8    11   ar
    17     8    13   ar
    18     9    10   ar
    19    10    12    1
    20    10    14   ar
    21    11    15   ar
    22    11    17   ar
    23    12    19   ar
    24    12    20   ar
    25    13    16   ar
    26    13    28    1
    27    14    15   ar
    28    14    29    1
    29    15    30    1
    30    16    18   ar
    31    17    18   ar
    32    17    31    1
    33    19    21   ar
    34    19    32    1
    35    20    23   ar
    36    21    22   ar
    37    22    23   ar
    38    23    33    1
    39    24    34    1
    40    24    35    1
    41    25    36    1
    42    25    37    1
    43    25    38    1
    44    26    39    1
    45    26    40    1
    46    27    41    1
