@<TRIPOS>MOLECULE
IMPHY003843
 75 80 0 0 0
SMALL
GASTEIGER

@<TRIPOS>ATOM
      1 O           5.5954   -2.5456    0.0000 O.3     1  UNL1       -0.3553
      2 O          12.0027    2.8336    0.0000 O.3     1  UNL1       -0.3918
      3 N           4.6359   -3.0461    0.0000 N.3     1  UNL1       -0.2885
      4 C           6.6628   -0.3108    0.0000 C.3     1  UNL1       -0.0233
      5 C           7.5288   -0.8108    0.0000 C.3     1  UNL1       -0.0298
      6 C           5.9258   -0.9778    0.0000 C.3     1  UNL1       -0.0025
      7 C           8.3948   -0.3108    0.0000 C.3     1  UNL1       -0.0343
      8 C           8.3948    0.6892    0.0000 C.3     1  UNL1       -0.0323
      9 C           6.3309   -1.8856    0.0000 C.3     1  UNL1        0.0649
     10 C           7.3196   -1.7826    0.0000 C.3     1  UNL1       -0.0226
     11 C           9.2888    1.2239    0.0000 C.3     1  UNL1       -0.0260
     12 C           6.6628    0.6892    0.0000 C.3     1  UNL1       -0.0467
     13 C           4.9434   -1.0845    0.0000 C.3     1  UNL1        0.0046
     14 C           7.5288    1.1892    0.0000 C.3     1  UNL1       -0.0489
     15 C          10.1949    0.7101    0.0000 C.3     1  UNL1       -0.0330
     16 C           9.2888   -0.8454    0.0000 C.3     1  UNL1       -0.0494
     17 C           4.7396   -2.0515    0.0000 C.3     1  UNL1        0.1239
     18 C           5.7968    0.1892    0.0000 C.3     1  UNL1       -0.0590
     19 C          10.1949   -0.3316    0.0000 C.3     1  UNL1       -0.0494
     20 C           9.2637    2.3086    0.0000 C.3     1  UNL1       -0.0448
     21 C          11.1386    1.2453    0.0000 C.3     1  UNL1       -0.0235
     22 C           8.4189    1.7172    0.0000 C.3     1  UNL1       -0.0590
     23 C           3.9300   -1.4644    0.0000 C.3     1  UNL1       -0.0095
     24 C           4.2723   -0.3431    0.0000 C.3     1  UNL1       -0.0582
     25 C          10.1949    2.8655    0.0000 C.3     1  UNL1       -0.0263
     26 C          11.1386    2.3303    0.0000 C.3     1  UNL1        0.0555
     27 C           3.0169   -1.8719    0.0000 C.3     1  UNL1       -0.0454
     28 C           3.7227   -3.4536    0.0000 C.3     1  UNL1        0.0010
     29 C           2.9132   -2.8665    0.0000 C.3     1  UNL1       -0.0311
     30 C           2.0000   -3.2741    0.0000 C.3     1  UNL1       -0.0613
     31 H           8.2158   -1.3113    0.0000 H       1  UNL1        0.0310
     32 H           5.5777   -0.2024    0.0000 H       1  UNL1        0.0335
     33 H           8.3883   -1.1607    0.0000 H       1  UNL1        0.0306
     34 H           9.1342    0.2699    0.0000 H       1  UNL1        0.0309
     35 H           6.6756   -2.6626    0.0000 H       1  UNL1        0.0600
     36 H           7.3187   -2.4026    0.0000 H       1  UNL1        0.0293
     37 H           7.9361   -1.8486    0.0000 H       1  UNL1        0.0293
     38 H           6.4507    1.2719    0.0000 H       1  UNL1        0.0271
     39 H           6.0522    0.5816    0.0000 H       1  UNL1        0.0271
     40 H           4.3448   -1.2463    0.0000 H       1  UNL1        0.0343
     41 H           7.9274    1.6642    0.0000 H       1  UNL1        0.0268
     42 H           7.1303    1.6642    0.0000 H       1  UNL1        0.0268
     43 H          10.9293    0.2822    0.0000 H       1  UNL1        0.0307
     44 H           8.8842   -1.3152    0.0000 H       1  UNL1        0.0268
     45 H           9.6824   -1.3244    0.0000 H       1  UNL1        0.0268
     46 H           6.1068    0.7262    0.0000 H       1  UNL1        0.0235
     47 H           5.2598    0.4992    0.0000 H       1  UNL1        0.0235
     48 H           5.4868   -0.3477    0.0000 H       1  UNL1        0.0235
     49 H          10.4039   -0.9153    0.0000 H       1  UNL1        0.0268
     50 H          10.8057   -0.2255    0.0000 H       1  UNL1        0.0268
     51 H           9.0412    2.8873    0.0000 H       1  UNL1        0.0271
     52 H           8.6555    2.1884    0.0000 H       1  UNL1        0.0271
     53 H          11.3477    0.6616    0.0000 H       1  UNL1        0.0293
     54 H          11.7495    1.3514    0.0000 H       1  UNL1        0.0293
     55 H           8.7248    2.2565    0.0000 H       1  UNL1        0.0235
     56 H           7.8796    2.0231    0.0000 H       1  UNL1        0.0235
     57 H           8.1131    1.1779    0.0000 H       1  UNL1        0.0235
     58 H           4.3757   -1.0333    0.0000 H       1  UNL1        0.0306
     59 H           3.5829   -0.9507    0.0000 H       1  UNL1        0.0306
     60 H           4.7320    0.0729    0.0000 H       1  UNL1        0.0234
     61 H           3.8562    0.1165    0.0000 H       1  UNL1        0.0234
     62 H           3.8126   -0.7592    0.0000 H       1  UNL1        0.0234
     63 H          10.5885    3.3446    0.0000 H       1  UNL1        0.0290
     64 H           9.7903    3.3353    0.0000 H       1  UNL1        0.0290
     65 H          11.1351    2.9503    0.0000 H       1  UNL1        0.0593
     66 H           5.1378   -3.4101    0.0000 H       1  UNL1        0.1246
     67 H           2.8664   -1.2705    0.0000 H       1  UNL1        0.0270
     68 H           2.3984   -1.9157    0.0000 H       1  UNL1        0.0270
     69 H           3.2771   -3.8847    0.0000 H       1  UNL1        0.0427
     70 H           4.0699   -3.9673    0.0000 H       1  UNL1        0.0427
     71 H           2.4113   -2.5026    0.0000 H       1  UNL1        0.0310
     72 H          12.0003    3.4536    0.0000 H       1  UNL1        0.2098
     73 H           1.7473   -2.7079    0.0000 H       1  UNL1        0.0233
     74 H           1.4338   -3.5267    0.0000 H       1  UNL1        0.0233
     75 H           2.2527   -3.8402    0.0000 H       1  UNL1        0.0233
@<TRIPOS>BOND
     1     1     9    1
     2    17     1    1
     3    26     2    1
     4     2    72    1
     5     3    17    1
     6     3    28    1
     7     3    66    1
     8     4     5    1
     9     4     6    1
    10     4    12    1
    11     4    18    1
    12     5     7    1
    13     5    10    1
    14     5    31    1
    15     6     9    1
    16     6    13    1
    17     6    32    1
    18     7     8    1
    19     7    16    1
    20     7    33    1
    21     8    11    1
    22     8    14    1
    23     8    34    1
    24     9    10    1
    25     9    35    1
    26    10    36    1
    27    10    37    1
    28    11    15    1
    29    11    20    1
    30    11    22    1
    31    12    14    1
    32    12    38    1
    33    12    39    1
    34    13    17    1
    35    13    24    1
    36    13    40    1
    37    14    41    1
    38    14    42    1
    39    15    19    1
    40    15    21    1
    41    15    43    1
    42    16    19    1
    43    16    44    1
    44    16    45    1
    45    17    23    1
    46    18    46    1
    47    18    47    1
    48    18    48    1
    49    19    49    1
    50    19    50    1
    51    20    25    1
    52    20    51    1
    53    20    52    1
    54    21    26    1
    55    21    53    1
    56    21    54    1
    57    22    55    1
    58    22    56    1
    59    22    57    1
    60    23    27    1
    61    23    58    1
    62    23    59    1
    63    24    60    1
    64    24    61    1
    65    24    62    1
    66    25    26    1
    67    25    63    1
    68    25    64    1
    69    26    65    1
    70    27    29    1
    71    27    67    1
    72    27    68    1
    73    28    29    1
    74    28    69    1
    75    28    70    1
    76    29    30    1
    77    29    71    1
    78    30    73    1
    79    30    74    1
    80    30    75    1
