@<TRIPOS>MOLECULE
IMPHY014001
 16 16 0 0 0
SMALL
GASTEIGER

@<TRIPOS>ATOM
      1 O           4.2690    1.6550    0.0000 O.3     1  UNL1       -0.5008
      2 O           2.5369    0.6550    0.0000 O.3     1  UNL1       -0.5008
      3 O           6.0010    0.6550    0.0000 O.3     1  UNL1       -0.5032
      4 O           2.5369   -1.3450    0.0000 O.3     1  UNL1       -0.5032
      5 C           4.2690    0.6550    0.0000 C.ar    1  UNL1        0.2043
      6 C           3.4030    0.1550    0.0000 C.ar    1  UNL1        0.2043
      7 C           5.1350    0.1550    0.0000 C.ar    1  UNL1        0.1622
      8 C           3.4030   -0.8450    0.0000 C.ar    1  UNL1        0.1622
      9 C           5.1350   -0.8450    0.0000 C.ar    1  UNL1       -0.0128
     10 C           4.2690   -1.3450    0.0000 C.ar    1  UNL1       -0.0128
     11 H           5.6720   -1.1550    0.0000 H       1  UNL1        0.0656
     12 H           4.2690   -1.9650    0.0000 H       1  UNL1        0.0656
     13 H           4.8059    1.9650    0.0000 H       1  UNL1        0.2924
     14 H           2.0000    0.3450    0.0000 H       1  UNL1        0.2924
     15 H           6.5380    0.3450    0.0000 H       1  UNL1        0.2923
     16 H           2.5369   -1.9650    0.0000 H       1  UNL1        0.2923
@<TRIPOS>BOND
     1     1     5    1
     2     1    13    1
     3     2     6    1
     4     2    14    1
     5     3     7    1
     6     3    15    1
     7     4     8    1
     8     4    16    1
     9     5     6   ar
    10     5     7   ar
    11     6     8   ar
    12     7     9   ar
    13     8    10   ar
    14     9    10   ar
    15     9    11    1
    16    10    12    1
