@<TRIPOS>MOLECULE
IMPHY006232
 47 46 0 0 0
SMALL
GASTEIGER

@<TRIPOS>ATOM
      1 O          11.5263   -1.2500    0.0000 O.2     1  UNL1       -0.2708
      2 N          12.3923    0.2500    0.0000 N.am    1  UNL1       -0.3116
      3 C           4.5981   -0.2500    0.0000 C.3     1  UNL1       -0.0531
      4 C           5.4641    0.2500    0.0000 C.3     1  UNL1       -0.0528
      5 C           3.7320    0.2500    0.0000 C.3     1  UNL1       -0.0533
      6 C           6.3301   -0.2500    0.0000 C.3     1  UNL1       -0.0496
      7 C           2.8660   -0.2500    0.0000 C.3     1  UNL1       -0.0559
      8 C           7.1962    0.2500    0.0000 C.3     1  UNL1       -0.0345
      9 C          14.1244    0.2500    0.0000 C.3     1  UNL1       -0.0311
     10 C          13.2583   -0.2500    0.0000 C.3     1  UNL1        0.0142
     11 C           2.0000    0.2500    0.0000 C.3     1  UNL1       -0.0653
     12 C           8.0622   -0.2500    0.0000 C.2     1  UNL1       -0.0840
     13 C          14.9904   -0.2500    0.0000 C.3     1  UNL1       -0.0612
     14 C          14.1244    1.2500    0.0000 C.3     1  UNL1       -0.0612
     15 C           8.9282    0.2500    0.0000 C.2     1  UNL1       -0.0655
     16 C          11.5263   -0.2500    0.0000 C.2     1  UNL1        0.2369
     17 C           9.7942   -0.2500    0.0000 C.2     1  UNL1       -0.0571
     18 C          10.6603    0.2500    0.0000 C.2     1  UNL1        0.0001
     19 H           4.1996   -0.7249    0.0000 H       1  UNL1        0.0265
     20 H           4.9966   -0.7249    0.0000 H       1  UNL1        0.0265
     21 H           5.8626    0.7249    0.0000 H       1  UNL1        0.0265
     22 H           5.0656    0.7249    0.0000 H       1  UNL1        0.0265
     23 H           4.1306    0.7249    0.0000 H       1  UNL1        0.0265
     24 H           3.3335    0.7249    0.0000 H       1  UNL1        0.0265
     25 H           5.9316   -0.7249    0.0000 H       1  UNL1        0.0268
     26 H           6.7287   -0.7249    0.0000 H       1  UNL1        0.0268
     27 H           2.4675   -0.7249    0.0000 H       1  UNL1        0.0263
     28 H           3.2646   -0.7249    0.0000 H       1  UNL1        0.0263
     29 H           7.5947    0.7249    0.0000 H       1  UNL1        0.0307
     30 H           6.7976    0.7249    0.0000 H       1  UNL1        0.0307
     31 H          13.5874    0.5600    0.0000 H       1  UNL1        0.0311
     32 H          12.8598   -0.7249    0.0000 H       1  UNL1        0.0465
     33 H          13.6569   -0.7249    0.0000 H       1  UNL1        0.0465
     34 H           2.3100    0.7869    0.0000 H       1  UNL1        0.0230
     35 H           1.4631    0.5600    0.0000 H       1  UNL1        0.0230
     36 H           1.6900   -0.2869    0.0000 H       1  UNL1        0.0230
     37 H           8.0622   -0.8700    0.0000 H       1  UNL1        0.0572
     38 H          14.6804   -0.7869    0.0000 H       1  UNL1        0.0233
     39 H          15.5273   -0.5600    0.0000 H       1  UNL1        0.0233
     40 H          15.3004    0.2869    0.0000 H       1  UNL1        0.0233
     41 H          14.7444    1.2500    0.0000 H       1  UNL1        0.0233
     42 H          14.1244    1.8700    0.0000 H       1  UNL1        0.0233
     43 H          13.5044    1.2500    0.0000 H       1  UNL1        0.0233
     44 H          12.3923    0.8700    0.0000 H       1  UNL1        0.1490
     45 H           8.9282    0.8700    0.0000 H       1  UNL1        0.0614
     46 H           9.7942   -0.8700    0.0000 H       1  UNL1        0.0619
     47 H          10.6603    0.8700    0.0000 H       1  UNL1        0.0669
@<TRIPOS>BOND
     1     1    16    2
     2     2    10    1
     3     2    16   am
     4     2    44    1
     5     3     4    1
     6     3     5    1
     7     3    19    1
     8     3    20    1
     9     4     6    1
    10     4    21    1
    11     4    22    1
    12     5     7    1
    13     5    23    1
    14     5    24    1
    15     6     8    1
    16     6    25    1
    17     6    26    1
    18     7    11    1
    19     7    27    1
    20     7    28    1
    21     8    12    1
    22     8    29    1
    23     8    30    1
    24     9    10    1
    25     9    13    1
    26     9    14    1
    27     9    31    1
    28    10    32    1
    29    10    33    1
    30    11    34    1
    31    11    35    1
    32    11    36    1
    33    12    15    2
    34    12    37    1
    35    13    38    1
    36    13    39    1
    37    13    40    1
    38    14    41    1
    39    14    42    1
    40    14    43    1
    41    15    17    1
    42    15    45    1
    43    16    18    1
    44    17    18    2
    45    17    46    1
    46    18    47    1
