@<TRIPOS>MOLECULE
IMPHY004851
 53 56 0 0 0
SMALL
GASTEIGER

@<TRIPOS>ATOM
      1 O           5.1350   -0.8870    0.0000 O.3     1  UNL1       -0.3313
      2 O           6.8671   -0.8870    0.0000 O.3     1  UNL1       -0.4599
      3 O           5.1350   -3.8870    0.0000 O.3     1  UNL1       -0.3864
      4 O           3.4030   -2.8870    0.0000 O.3     1  UNL1       -0.3865
      5 O           6.8671   -2.8870    0.0000 O.3     1  UNL1       -0.3829
      6 O           2.5369   -1.3870    0.0000 O.3     1  UNL1       -0.3924
      7 O           8.6504    2.1272    0.0000 O.2     1  UNL1       -0.4507
      8 O           5.1208    2.1922    0.0000 O.3     1  UNL1       -0.5065
      9 O           8.6158   -0.8726    0.0000 O.2     1  UNL1       -0.2830
     10 O          10.3592    0.1073    0.0000 O.3     1  UNL1       -0.5007
     11 O          12.9745    1.5772    0.0000 O.3     1  UNL1       -0.5033
     12 O          12.9976    3.5770    0.0000 O.3     1  UNL1       -0.5033
     13 C           5.1350   -2.8870    0.0000 C.3     1  UNL1        0.1152
     14 C           4.2690   -2.3870    0.0000 C.3     1  UNL1        0.1120
     15 C           6.0010   -2.3870    0.0000 C.3     1  UNL1        0.1454
     16 C           4.2690   -1.3870    0.0000 C.3     1  UNL1        0.1140
     17 C           6.0010   -1.3870    0.0000 C.3     1  UNL1        0.2308
     18 C           3.4030   -0.8870    0.0000 C.3     1  UNL1        0.0731
     19 C           6.8671    0.1130    0.0000 C.ar    1  UNL1        0.1419
     20 C           7.7671    0.6373    0.0000 C.ar    1  UNL1        0.1095
     21 C           5.9670    0.6373    0.0000 C.ar    1  UNL1        0.0226
     22 C           7.7787    1.6372    0.0000 C.ar    1  UNL1        0.1465
     23 C           8.6273    0.1273    0.0000 C.ar    1  UNL1        0.2379
     24 C           5.9790    1.6789    0.0000 C.ar    1  UNL1        0.1239
     25 C           6.8910    2.1822    0.0000 C.ar    1  UNL1        0.0231
     26 C           9.5106    1.6172    0.0000 C.ar    1  UNL1        0.1807
     27 C           9.4991    0.6173    0.0000 C.ar    1  UNL1        0.2082
     28 C          10.3824    2.1072    0.0000 C.ar    1  UNL1        0.0247
     29 C          11.2426    1.5972    0.0000 C.ar    1  UNL1       -0.0057
     30 C          10.3939    3.1071    0.0000 C.ar    1  UNL1       -0.0473
     31 C          12.1143    2.0871    0.0000 C.ar    1  UNL1        0.1589
     32 C          11.2657    3.5970    0.0000 C.ar    1  UNL1       -0.0159
     33 C          12.1259    3.0871    0.0000 C.ar    1  UNL1        0.1583
     34 H           4.5981   -3.1970    0.0000 H       1  UNL1        0.0648
     35 H           4.2690   -3.0070    0.0000 H       1  UNL1        0.0647
     36 H           6.0010   -3.0070    0.0000 H       1  UNL1        0.0683
     37 H           4.2690   -0.7670    0.0000 H       1  UNL1        0.0647
     38 H           6.0010   -0.7670    0.0000 H       1  UNL1        0.1084
     39 H           3.8015   -0.4120    0.0000 H       1  UNL1        0.0584
     40 H           3.0044   -0.4120    0.0000 H       1  UNL1        0.0584
     41 H           4.5981   -4.1970    0.0000 H       1  UNL1        0.2100
     42 H           3.4030   -3.5070    0.0000 H       1  UNL1        0.2100
     43 H           6.8671   -3.5070    0.0000 H       1  UNL1        0.2102
     44 H           2.0000   -1.0770    0.0000 H       1  UNL1        0.2095
     45 H           5.4277    0.3315    0.0000 H       1  UNL1        0.0691
     46 H           6.9053    2.8020    0.0000 H       1  UNL1        0.0691
     47 H          11.2354    0.9772    0.0000 H       1  UNL1        0.0662
     48 H           9.8606    3.4233    0.0000 H       1  UNL1        0.0626
     49 H           5.1304    2.8121    0.0000 H       1  UNL1        0.2921
     50 H          10.3521   -0.5127    0.0000 H       1  UNL1        0.2924
     51 H          11.2729    4.2170    0.0000 H       1  UNL1        0.0655
     52 H          13.5150    1.8809    0.0000 H       1  UNL1        0.2923
     53 H          13.0048    4.1970    0.0000 H       1  UNL1        0.2923
@<TRIPOS>BOND
     1     1    16    1
     2     1    17    1
     3    17     2    1
     4     2    19    1
     5    13     3    1
     6     3    41    1
     7    14     4    1
     8     4    42    1
     9     5    15    1
    10     5    43    1
    11     6    18    1
    12     6    44    1
    13     7    22   ar
    14     7    26   ar
    15     8    24    1
    16     8    49    1
    17     9    23    2
    18    10    27    1
    19    10    50    1
    20    11    31    1
    21    11    52    1
    22    12    33    1
    23    12    53    1
    24    13    14    1
    25    13    15    1
    26    13    34    1
    27    14    16    1
    28    14    35    1
    29    15    17    1
    30    15    36    1
    31    16    18    1
    32    16    37    1
    33    17    38    1
    34    18    39    1
    35    18    40    1
    36    19    20   ar
    37    19    21   ar
    38    20    22   ar
    39    20    23   ar
    40    21    24   ar
    41    21    45    1
    42    22    25   ar
    43    23    27   ar
    44    24    25   ar
    45    25    46    1
    46    26    27   ar
    47    26    28    1
    48    28    29   ar
    49    28    30   ar
    50    29    31   ar
    51    29    47    1
    52    30    32   ar
    53    30    48    1
    54    31    33   ar
    55    32    33   ar
    56    32    51    1
