@<TRIPOS>MOLECULE
IMPHY007017
 34 34 0 0 0
SMALL
GASTEIGER

@<TRIPOS>ATOM
      1 O           4.5981   -3.2500    0.0000 O.3     1  UNL1       -0.4885
      2 O           2.8660   -2.2500    0.0000 O.3     1  UNL1       -0.4913
      3 O           6.3301   -2.2500    0.0000 O.3     1  UNL1       -0.4913
      4 O           6.3301    2.7500    0.0000 O.3     1  UNL1       -0.4649
      5 O           4.5981    2.7500    0.0000 O.2     1  UNL1       -0.2456
      6 C           4.5981   -0.2500    0.0000 C.ar    1  UNL1       -0.0177
      7 C           4.5981   -2.2500    0.0000 C.ar    1  UNL1        0.2035
      8 C           3.7320   -1.7500    0.0000 C.ar    1  UNL1        0.1657
      9 C           5.4641   -1.7500    0.0000 C.ar    1  UNL1        0.1657
     10 C           3.7320   -0.7500    0.0000 C.ar    1  UNL1       -0.0089
     11 C           5.4641   -0.7500    0.0000 C.ar    1  UNL1       -0.0089
     12 C           4.5981    0.7500    0.0000 C.2     1  UNL1       -0.0476
     13 C           5.4641    1.2500    0.0000 C.2     1  UNL1        0.0230
     14 C           3.7320   -3.7500    0.0000 C.3     1  UNL1        0.0791
     15 C           2.0000   -1.7500    0.0000 C.3     1  UNL1        0.0790
     16 C           7.1962   -1.7500    0.0000 C.3     1  UNL1        0.0790
     17 C           5.4641    2.2500    0.0000 C.2     1  UNL1        0.3317
     18 C           6.3301    3.7500    0.0000 C.3     1  UNL1        0.0820
     19 H           3.1951   -0.4400    0.0000 H       1  UNL1        0.0661
     20 H           6.0010   -0.4400    0.0000 H       1  UNL1        0.0661
     21 H           4.0611    1.0600    0.0000 H       1  UNL1        0.0626
     22 H           6.0010    0.9400    0.0000 H       1  UNL1        0.0689
     23 H           3.4220   -3.2131    0.0000 H       1  UNL1        0.0660
     24 H           3.1951   -4.0600    0.0000 H       1  UNL1        0.0660
     25 H           4.0420   -4.2869    0.0000 H       1  UNL1        0.0660
     26 H           2.3100   -1.2131    0.0000 H       1  UNL1        0.0660
     27 H           1.4631   -1.4400    0.0000 H       1  UNL1        0.0660
     28 H           1.6900   -2.2869    0.0000 H       1  UNL1        0.0660
     29 H           7.5062   -2.2869    0.0000 H       1  UNL1        0.0660
     30 H           7.7331   -1.4400    0.0000 H       1  UNL1        0.0660
     31 H           6.8862   -1.2131    0.0000 H       1  UNL1        0.0660
     32 H           6.9501    3.7500    0.0000 H       1  UNL1        0.0661
     33 H           6.3301    4.3700    0.0000 H       1  UNL1        0.0661
     34 H           5.7101    3.7500    0.0000 H       1  UNL1        0.0661
@<TRIPOS>BOND
     1     1     7    1
     2     1    14    1
     3     2     8    1
     4     2    15    1
     5     3     9    1
     6     3    16    1
     7     4    17    1
     8     4    18    1
     9     5    17    2
    10     6    10   ar
    11     6    11   ar
    12     6    12    1
    13     7     8   ar
    14     7     9   ar
    15     8    10   ar
    16     9    11   ar
    17    10    19    1
    18    11    20    1
    19    12    13    2
    20    12    21    1
    21    13    17    1
    22    13    22    1
    23    14    23    1
    24    14    24    1
    25    14    25    1
    26    15    26    1
    27    15    27    1
    28    15    28    1
    29    16    29    1
    30    16    30    1
    31    16    31    1
    32    18    32    1
    33    18    33    1
    34    18    34    1
