@<TRIPOS>MOLECULE
IMPHY002570
 69 72 0 0 0
SMALL
GASTEIGER

@<TRIPOS>ATOM
      1 O          10.4263   -1.8797    0.0000 O.3     1  UNL1       -0.4780
      2 O           6.0682   -0.3450    0.0000 O.2     1  UNL1       -0.4504
      3 O           2.5381   -0.3692    0.0000 O.3     1  UNL1       -0.5062
      4 O           8.6663   -2.8450    0.0000 O.3     1  UNL1       -0.5033
      5 O           7.8003    1.6550    0.0000 O.3     1  UNL1       -0.5007
      6 O           4.3198    2.6896    0.0000 O.3     1  UNL1       -0.5058
      7 O           6.0682    2.6550    0.0000 O.2     1  UNL1       -0.2830
      8 C           4.3198   -1.3796    0.0000 C.3     1  UNL1        0.0148
      9 C           4.3083   -0.3797    0.0000 C.ar    1  UNL1        0.0465
     10 C          11.3324   -1.3658    0.0000 C.3     1  UNL1        0.1237
     11 C           8.6663    0.1550    0.0000 C.ar    1  UNL1       -0.0220
     12 C           9.5323   -0.3450    0.0000 C.ar    1  UNL1        0.0243
     13 C           5.2022    0.1550    0.0000 C.ar    1  UNL1        0.1505
     14 C           7.8003   -0.3450    0.0000 C.ar    1  UNL1        0.0288
     15 C           9.5323   -1.3450    0.0000 C.ar    1  UNL1        0.1703
     16 C           6.9343    0.1550    0.0000 C.ar    1  UNL1        0.1810
     17 C           5.2022    1.1550    0.0000 C.ar    1  UNL1        0.1095
     18 C           3.3199   -1.3912    0.0000 C.3     1  UNL1       -0.0521
     19 C           5.3198   -1.3680    0.0000 C.3     1  UNL1       -0.0521
     20 C          11.3324   -0.3242    0.0000 C.2     1  UNL1       -0.0409
     21 C          10.4263    0.1897    0.0000 C.2     1  UNL1       -0.0509
     22 C           8.6663    1.1550    0.0000 C.3     1  UNL1       -0.0079
     23 C           3.4022    0.1342    0.0000 C.ar    1  UNL1        0.1278
     24 C           7.8003   -1.3450    0.0000 C.ar    1  UNL1       -0.0054
     25 C           8.6663   -1.8450    0.0000 C.ar    1  UNL1        0.1598
     26 C           4.3314   -2.3795    0.0000 C.2     1  UNL1       -0.0809
     27 C          12.3324   -1.3697    0.0000 C.3     1  UNL1       -0.0215
     28 C          11.8290   -2.2338    0.0000 C.3     1  UNL1       -0.0215
     29 C           6.9343    1.1550    0.0000 C.ar    1  UNL1        0.2082
     30 C           6.0682    1.6550    0.0000 C.ar    1  UNL1        0.2379
     31 C           4.3083    1.6897    0.0000 C.ar    1  UNL1        0.1348
     32 C           3.4022    1.1758    0.0000 C.ar    1  UNL1        0.0226
     33 C           9.5323    1.6550    0.0000 C.2     1  UNL1       -0.0809
     34 C           3.4712   -2.8895    0.0000 C.2     1  UNL1       -0.1018
     35 C           9.5323    2.6550    0.0000 C.2     1  UNL1       -0.0793
     36 C          10.3984    3.1550    0.0000 C.3     1  UNL1       -0.0440
     37 C           8.6663    3.1550    0.0000 C.3     1  UNL1       -0.0440
     38 H           5.3270   -1.9880    0.0000 H       1  UNL1        0.0241
     39 H           5.9397   -1.3609    0.0000 H       1  UNL1        0.0241
     40 H           5.3126   -0.7481    0.0000 H       1  UNL1        0.0241
     41 H           3.3128   -0.7712    0.0000 H       1  UNL1        0.0241
     42 H           2.7000   -1.3983    0.0000 H       1  UNL1        0.0241
     43 H           3.3271   -2.0111    0.0000 H       1  UNL1        0.0241
     44 H          11.8681   -0.0121    0.0000 H       1  UNL1        0.0611
     45 H          10.4191    0.8096    0.0000 H       1  UNL1        0.0623
     46 H           8.4543    1.7376    0.0000 H       1  UNL1        0.0356
     47 H           8.0558    1.0473    0.0000 H       1  UNL1        0.0356
     48 H           7.2634   -1.6550    0.0000 H       1  UNL1        0.0662
     49 H           4.8719   -2.6833    0.0000 H       1  UNL1        0.0575
     50 H          11.2909   -2.5417    0.0000 H       1  UNL1        0.0271
     51 H          12.1369   -2.7719    0.0000 H       1  UNL1        0.0271
     52 H          12.3671   -1.9258    0.0000 H       1  UNL1        0.0271
     53 H          12.3300   -1.9897    0.0000 H       1  UNL1        0.0271
     54 H          12.9524   -1.3721    0.0000 H       1  UNL1        0.0271
     55 H          12.3347   -0.7497    0.0000 H       1  UNL1        0.0271
     56 H           2.8665    1.4879    0.0000 H       1  UNL1        0.0691
     57 H          10.0693    1.3450    0.0000 H       1  UNL1        0.0575
     58 H           2.9307   -2.5857    0.0000 H       1  UNL1        0.0532
     59 H           3.4784   -3.5095    0.0000 H       1  UNL1        0.0532
     60 H           2.0000   -0.0612    0.0000 H       1  UNL1        0.2921
     61 H           8.1294   -3.1550    0.0000 H       1  UNL1        0.2923
     62 H           7.8003    2.2750    0.0000 H       1  UNL1        0.2924
     63 H           3.7865    3.0058    0.0000 H       1  UNL1        0.2922
     64 H          10.7084    2.6181    0.0000 H       1  UNL1        0.0274
     65 H           8.9763    3.6919    0.0000 H       1  UNL1        0.0274
     66 H           8.1294    3.4650    0.0000 H       1  UNL1        0.0274
     67 H           8.3563    2.6181    0.0000 H       1  UNL1        0.0274
     68 H          10.9353    3.4650    0.0000 H       1  UNL1        0.0274
     69 H          10.0884    3.6919    0.0000 H       1  UNL1        0.0274
@<TRIPOS>BOND
     1     1    10    1
     2     1    15    1
     3     2    13   ar
     4     2    16   ar
     5     3    23    1
     6     3    60    1
     7     4    25    1
     8     4    61    1
     9     5    29    1
    10     5    62    1
    11     6    31    1
    12     6    63    1
    13     7    30    2
    14     8     9    1
    15     8    18    1
    16     8    19    1
    17     8    26    1
    18     9    13   ar
    19     9    23   ar
    20    10    20    1
    21    10    27    1
    22    10    28    1
    23    11    12   ar
    24    11    14   ar
    25    11    22    1
    26    12    15   ar
    27    12    21    1
    28    13    17   ar
    29    14    16    1
    30    14    24   ar
    31    15    25   ar
    32    16    29   ar
    33    17    30   ar
    34    17    31   ar
    35    18    41    1
    36    18    42    1
    37    18    43    1
    38    19    38    1
    39    19    39    1
    40    19    40    1
    41    20    21    2
    42    20    44    1
    43    21    45    1
    44    22    33    1
    45    22    46    1
    46    22    47    1
    47    23    32   ar
    48    24    25   ar
    49    24    48    1
    50    26    34    2
    51    26    49    1
    52    27    53    1
    53    27    54    1
    54    27    55    1
    55    28    50    1
    56    28    51    1
    57    28    52    1
    58    29    30   ar
    59    31    32   ar
    60    32    56    1
    61    33    35    2
    62    33    57    1
    63    34    58    1
    64    34    59    1
    65    35    36    1
    66    35    37    1
    67    36    64    1
    68    36    68    1
    69    36    69    1
    70    37    65    1
    71    37    66    1
    72    37    67    1
