@<TRIPOS>MOLECULE
IMPHY017188
 57 56 0 0 0
SMALL
GASTEIGER

@<TRIPOS>ATOM
      1 O           2.5369    0.7500    0.0000 O.3     1  UNL1       -0.3950
      2 C           5.1350    0.2500    0.0000 C.3     1  UNL1       -0.0415
      3 C           6.0010    0.7500    0.0000 C.3     1  UNL1       -0.0469
      4 C           4.2690    0.7500    0.0000 C.3     1  UNL1       -0.0271
      5 C           6.8671    0.2500    0.0000 C.3     1  UNL1       -0.0343
      6 C           5.1350   -0.7500    0.0000 C.3     1  UNL1       -0.0623
      7 C           7.7331    0.7500    0.0000 C.2     1  UNL1       -0.0850
      8 C           3.4030    0.2500    0.0000 C.3     1  UNL1        0.0444
      9 C           8.5991    0.2500    0.0000 C.2     1  UNL1       -0.0762
     10 C           9.4651    0.7500    0.0000 C.3     1  UNL1       -0.0286
     11 C          10.3312    0.2500    0.0000 C.3     1  UNL1       -0.0308
     12 C           8.5991   -0.7500    0.0000 C.3     1  UNL1       -0.0438
     13 C          11.1972    0.7500    0.0000 C.2     1  UNL1       -0.0847
     14 C          12.0632    0.2500    0.0000 C.2     1  UNL1       -0.0762
     15 C          12.9292    0.7500    0.0000 C.3     1  UNL1       -0.0286
     16 C          13.7953    0.2500    0.0000 C.3     1  UNL1       -0.0308
     17 C          12.0632   -0.7500    0.0000 C.3     1  UNL1       -0.0438
     18 C          14.6613    0.7500    0.0000 C.2     1  UNL1       -0.0850
     19 C          15.5273    0.2500    0.0000 C.2     1  UNL1       -0.0796
     20 C          16.3933    0.7500    0.0000 C.3     1  UNL1       -0.0440
     21 C          15.5273   -0.7500    0.0000 C.3     1  UNL1       -0.0440
     22 H           5.6720   -0.0600    0.0000 H       1  UNL1        0.0299
     23 H           6.3996    1.2250    0.0000 H       1  UNL1        0.0271
     24 H           5.6025    1.2250    0.0000 H       1  UNL1        0.0271
     25 H           4.6675    1.2250    0.0000 H       1  UNL1        0.0290
     26 H           3.8705    1.2250    0.0000 H       1  UNL1        0.0290
     27 H           6.4685   -0.2249    0.0000 H       1  UNL1        0.0307
     28 H           7.2656   -0.2249    0.0000 H       1  UNL1        0.0307
     29 H           4.5150   -0.7500    0.0000 H       1  UNL1        0.0232
     30 H           5.1350   -1.3700    0.0000 H       1  UNL1        0.0232
     31 H           5.7550   -0.7500    0.0000 H       1  UNL1        0.0232
     32 H           7.7331    1.3700    0.0000 H       1  UNL1        0.0572
     33 H           3.0044   -0.2249    0.0000 H       1  UNL1        0.0557
     34 H           3.8015   -0.2249    0.0000 H       1  UNL1        0.0557
     35 H           9.8637    1.2250    0.0000 H       1  UNL1        0.0313
     36 H           9.0666    1.2250    0.0000 H       1  UNL1        0.0313
     37 H           9.9326   -0.2249    0.0000 H       1  UNL1        0.0310
     38 H          10.7297   -0.2249    0.0000 H       1  UNL1        0.0310
     39 H          11.1972    1.3700    0.0000 H       1  UNL1        0.0572
     40 H           7.9791   -0.7500    0.0000 H       1  UNL1        0.0274
     41 H           8.5991   -1.3700    0.0000 H       1  UNL1        0.0274
     42 H           9.2191   -0.7500    0.0000 H       1  UNL1        0.0274
     43 H          13.3278    1.2250    0.0000 H       1  UNL1        0.0313
     44 H          12.5307    1.2250    0.0000 H       1  UNL1        0.0313
     45 H          13.3967   -0.2249    0.0000 H       1  UNL1        0.0310
     46 H          14.1938   -0.2249    0.0000 H       1  UNL1        0.0310
     47 H           2.0000    0.4400    0.0000 H       1  UNL1        0.2094
     48 H          11.4432   -0.7500    0.0000 H       1  UNL1        0.0274
     49 H          12.0632   -1.3700    0.0000 H       1  UNL1        0.0274
     50 H          12.6832   -0.7500    0.0000 H       1  UNL1        0.0274
     51 H          14.6613    1.3700    0.0000 H       1  UNL1        0.0572
     52 H          16.7033    0.2131    0.0000 H       1  UNL1        0.0274
     53 H          16.9303    1.0600    0.0000 H       1  UNL1        0.0274
     54 H          16.0833    1.2869    0.0000 H       1  UNL1        0.0274
     55 H          14.9073   -0.7500    0.0000 H       1  UNL1        0.0274
     56 H          15.5273   -1.3700    0.0000 H       1  UNL1        0.0274
     57 H          16.1473   -0.7500    0.0000 H       1  UNL1        0.0274
@<TRIPOS>BOND
     1     1     8    1
     2     1    47    1
     3     2     3    1
     4     2     4    1
     5     2     6    1
     6     2    22    1
     7     3     5    1
     8     3    23    1
     9     3    24    1
    10     4     8    1
    11     4    25    1
    12     4    26    1
    13     5     7    1
    14     5    27    1
    15     5    28    1
    16     6    29    1
    17     6    30    1
    18     6    31    1
    19     7     9    2
    20     7    32    1
    21     8    33    1
    22     8    34    1
    23     9    10    1
    24     9    12    1
    25    10    11    1
    26    10    35    1
    27    10    36    1
    28    11    13    1
    29    11    37    1
    30    11    38    1
    31    12    40    1
    32    12    41    1
    33    12    42    1
    34    13    14    2
    35    13    39    1
    36    14    15    1
    37    14    17    1
    38    15    16    1
    39    15    43    1
    40    15    44    1
    41    16    18    1
    42    16    45    1
    43    16    46    1
    44    17    48    1
    45    17    49    1
    46    17    50    1
    47    18    19    2
    48    18    51    1
    49    19    20    1
    50    19    21    1
    51    20    52    1
    52    20    53    1
    53    20    54    1
    54    21    55    1
    55    21    56    1
    56    21    57    1
