@<TRIPOS>MOLECULE
IMPHY000495
 19 21 0 0 0
SMALL
GASTEIGER

@<TRIPOS>ATOM
      1 C          -0.4996   -2.7581    0.0000 C.3     1  UNL1        0.0076
      2 C          -5.1080    0.0857    0.0000 C.3     1  UNL1        0.1585
      3 C          -0.0031    1.0000    0.0000 C.3     1  UNL1        0.1134
      4 C          -2.4457   -0.4950    0.0000 C.ar    1  UNL1        0.0389
      5 C          -1.6390   -0.0216    0.0000 C.ar    1  UNL1        0.0174
      6 C           0.8198   -2.3651    0.0000 C.3     1  UNL1        0.0260
      7 C           1.6455   -1.8815    0.0000 C.3     1  UNL1        0.0909
      8 C          -1.6259   -1.8922    0.0000 C.ar    1  UNL1        0.0347
      9 C          -2.4392   -1.4303    0.0000 C.ar    1  UNL1        0.1501
     10 C          -0.8192   -1.4189    0.0000 C.ar    1  UNL1       -0.0034
     11 C          -0.8258   -0.4836    0.0000 C.ar    1  UNL1        0.0450
     12 C           0.8196   -0.4732    0.0000 C.3     1  UNL1        0.1512
     13 C          -4.2112   -1.4427    0.0000 C.2     1  UNL1        0.4364
     14 C           0.0004   -1.8921    0.0000 C.3     1  UNL1        0.0537
     15 N          -4.2184   -0.4197    0.0000 N.2     1  UNL1       -0.1985
     16 N           1.6390   -0.9463    0.0000 N.3     1  UNL1       -0.1998
     17 N           0.0000    0.0000    0.0000 N.pl3   1  UNL1       -0.2935
     18 O          -5.0936   -1.9605    0.0000 O.2     1  UNL1       -0.2211
     19 O          -3.3216   -1.9480    0.0000 O.3     1  UNL1       -0.4073
@<TRIPOS>BOND
     1     2    15    1
     2     3    17    1
     3     4     5   ar
     4     4     9   ar
     5     5    11   ar
     6     6     7    1
     7     6    14    1
     8     7    16    1
     9     8     9   ar
    10     8    10   ar
    11     9    19    1
    12    10    11   ar
    13    10    14    1
    14    11    17    1
    15    12    14    1
    16    12    16    1
    17    12    17    1
    18    13    15    2
    19    13    18    1
    20    13    19    1
    21    14     1    1
