@<TRIPOS>MOLECULE
IMPHY000992
 49 49 0 0 0
SMALL
GASTEIGER

@<TRIPOS>ATOM
      1 O           2.8660   -4.0000    0.0000 O.3     1  UNL1       -0.4922
      2 C           3.7320    1.5000    0.0000 C.3     1  UNL1        0.0043
      3 C           3.7320    2.5000    0.0000 C.3     1  UNL1       -0.0373
      4 C           4.5981    3.0000    0.0000 C.3     1  UNL1       -0.0335
      5 C           2.7320    1.5000    0.0000 C.3     1  UNL1       -0.0526
      6 C           3.7320    0.5000    0.0000 C.2     1  UNL1       -0.0738
      7 C           4.7320    1.5000    0.0000 C.2     1  UNL1       -0.0815
      8 C           4.5981    4.0000    0.0000 C.2     1  UNL1       -0.0852
      9 C           2.8660    0.0000    0.0000 C.2     1  UNL1       -0.0577
     10 C           5.4641    4.5000    0.0000 C.2     1  UNL1       -0.0796
     11 C           2.8660   -1.0000    0.0000 C.ar    1  UNL1       -0.0251
     12 C           5.2320    2.3660    0.0000 C.2     1  UNL1       -0.1018
     13 C           5.4641    5.5000    0.0000 C.3     1  UNL1       -0.0440
     14 C           6.3301    4.0000    0.0000 C.3     1  UNL1       -0.0440
     15 C           2.0000   -1.5000    0.0000 C.ar    1  UNL1       -0.0511
     16 C           3.7320   -1.5000    0.0000 C.ar    1  UNL1       -0.0511
     17 C           2.0000   -2.5000    0.0000 C.ar    1  UNL1       -0.0194
     18 C           3.7320   -2.5000    0.0000 C.ar    1  UNL1       -0.0194
     19 C           2.8660   -3.0000    0.0000 C.ar    1  UNL1        0.1205
     20 C           2.0000   -4.5000    0.0000 C.3     1  UNL1        0.0868
     21 C           2.0000   -5.5000    0.0000 C.3     1  UNL1       -0.0307
     22 H           3.5200    3.0826    0.0000 H       1  UNL1        0.0279
     23 H           3.1215    2.3923    0.0000 H       1  UNL1        0.0279
     24 H           4.8101    2.4174    0.0000 H       1  UNL1        0.0308
     25 H           5.2087    3.1077    0.0000 H       1  UNL1        0.0308
     26 H           2.7320    2.1200    0.0000 H       1  UNL1        0.0241
     27 H           2.1120    1.5000    0.0000 H       1  UNL1        0.0241
     28 H           2.7320    0.8800    0.0000 H       1  UNL1        0.0241
     29 H           4.2690    0.1900    0.0000 H       1  UNL1        0.0581
     30 H           5.0420    0.9631    0.0000 H       1  UNL1        0.0575
     31 H           4.0611    4.3100    0.0000 H       1  UNL1        0.0571
     32 H           2.3291    0.3100    0.0000 H       1  UNL1        0.0621
     33 H           5.8520    2.3660    0.0000 H       1  UNL1        0.0532
     34 H           4.9220    2.9030    0.0000 H       1  UNL1        0.0532
     35 H           6.0201    3.4631    0.0000 H       1  UNL1        0.0274
     36 H           6.8671    3.6900    0.0000 H       1  UNL1        0.0274
     37 H           6.6401    4.5369    0.0000 H       1  UNL1        0.0274
     38 H           6.0841    5.5000    0.0000 H       1  UNL1        0.0274
     39 H           5.4641    6.1200    0.0000 H       1  UNL1        0.0274
     40 H           4.8441    5.5000    0.0000 H       1  UNL1        0.0274
     41 H           1.4631   -1.1900    0.0000 H       1  UNL1        0.0625
     42 H           4.2690   -1.1900    0.0000 H       1  UNL1        0.0625
     43 H           1.4631   -2.8100    0.0000 H       1  UNL1        0.0654
     44 H           4.2690   -2.8100    0.0000 H       1  UNL1        0.0654
     45 H           1.7880   -3.9174    0.0000 H       1  UNL1        0.0694
     46 H           1.3894   -4.6077    0.0000 H       1  UNL1        0.0694
     47 H           1.3800   -5.5000    0.0000 H       1  UNL1        0.0262
     48 H           2.0000   -6.1200    0.0000 H       1  UNL1        0.0262
     49 H           2.6200   -5.5000    0.0000 H       1  UNL1        0.0262
@<TRIPOS>BOND
     1     1    19    1
     2     1    20    1
     3     2     3    1
     4     2     5    1
     5     2     6    1
     6     2     7    1
     7     3     4    1
     8     3    22    1
     9     3    23    1
    10     4     8    1
    11     4    24    1
    12     4    25    1
    13     5    26    1
    14     5    27    1
    15     5    28    1
    16     6     9    2
    17     6    29    1
    18     7    12    2
    19     7    30    1
    20     8    10    2
    21     8    31    1
    22     9    11    1
    23     9    32    1
    24    10    13    1
    25    10    14    1
    26    11    15   ar
    27    11    16   ar
    28    12    33    1
    29    12    34    1
    30    13    38    1
    31    13    39    1
    32    13    40    1
    33    14    35    1
    34    14    36    1
    35    14    37    1
    36    15    17   ar
    37    15    41    1
    38    16    18   ar
    39    16    42    1
    40    17    19   ar
    41    17    43    1
    42    18    19   ar
    43    18    44    1
    44    20    21    1
    45    20    45    1
    46    20    46    1
    47    21    47    1
    48    21    48    1
    49    21    49    1
