@<TRIPOS>MOLECULE
IMPHY008468
 57 59 0 0 0
SMALL
GASTEIGER

@<TRIPOS>ATOM
      1 O           5.7036    0.5441    0.0000 O.3     1  UNL1       -0.4844
      2 O           3.1200   -0.2607    0.0000 O.3     1  UNL1       -0.2276
      3 O           9.2919    0.7462    0.0000 O.2     1  UNL1       -0.4212
      4 O           7.5158   -2.2607    0.0000 O.3     1  UNL1       -0.5055
      5 O           2.6200   -1.1267    0.0000 O.3     1  UNL1       -0.2495
      6 O          10.1139   -0.7607    0.0000 O.2     1  UNL1       -0.2918
      7 O          10.1679    2.2844    0.0000 O.2     1  UNL1       -0.2452
      8 C           5.1200   -0.2607    0.0000 C.3     1  UNL1        0.1356
      9 C           5.7036   -1.0654    0.0000 C.3     1  UNL1        0.0193
     10 C           4.1200   -0.2607    0.0000 C.3     1  UNL1        0.1354
     11 C           6.6498   -0.7607    0.0000 C.ar    1  UNL1        0.0407
     12 C           6.6498    0.2393    0.0000 C.ar    1  UNL1        0.1387
     13 C           7.5158    0.7393    0.0000 C.ar    1  UNL1        0.0636
     14 C           7.5158   -1.2607    0.0000 C.ar    1  UNL1        0.1377
     15 C           4.1200   -1.2607    0.0000 C.3     1  UNL1       -0.0295
     16 C           4.1200    0.7393    0.0000 C.3     1  UNL1       -0.0295
     17 C           8.3819   -0.7607    0.0000 C.ar    1  UNL1        0.1021
     18 C           8.3819    0.2393    0.0000 C.ar    1  UNL1        0.1568
     19 C           7.4998    1.7808    0.0000 C.ar    1  UNL1       -0.0264
     20 C           6.6280    2.2708    0.0000 C.3     1  UNL1       -0.0269
     21 C           9.2479   -1.2607    0.0000 C.2     1  UNL1        0.1705
     22 C           9.2479   -2.2607    0.0000 C.3     1  UNL1        0.0130
     23 C           8.3978    2.3086    0.0000 C.ar    1  UNL1        0.0269
     24 C          10.1139   -2.7607    0.0000 C.3     1  UNL1       -0.0397
     25 C           6.6165    3.2707    0.0000 C.3     1  UNL1       -0.0519
     26 C           9.2999    1.7878    0.0000 C.ar    1  UNL1        0.3375
     27 C          10.1139   -3.7607    0.0000 C.3     1  UNL1       -0.0623
     28 C          10.9800   -2.2607    0.0000 C.3     1  UNL1       -0.0623
     29 C           5.7447    3.7607    0.0000 C.3     1  UNL1       -0.0650
     30 H           4.8383    0.2916    0.0000 H       1  UNL1        0.0766
     31 H           5.1662   -1.3746    0.0000 H       1  UNL1        0.0352
     32 H           5.9546   -1.6323    0.0000 H       1  UNL1        0.0352
     33 H           4.7400    0.7393    0.0000 H       1  UNL1        0.0259
     34 H           4.1200    1.3593    0.0000 H       1  UNL1        0.0259
     35 H           3.5000    0.7393    0.0000 H       1  UNL1        0.0259
     36 H           3.5000   -1.2607    0.0000 H       1  UNL1        0.0259
     37 H           4.1200   -1.8807    0.0000 H       1  UNL1        0.0259
     38 H           4.7400   -1.2607    0.0000 H       1  UNL1        0.0259
     39 H           6.0163    2.3714    0.0000 H       1  UNL1        0.0313
     40 H           6.4227    1.6858    0.0000 H       1  UNL1        0.0313
     41 H           8.6373   -2.1530    0.0000 H       1  UNL1        0.0348
     42 H           9.0358   -2.8433    0.0000 H       1  UNL1        0.0348
     43 H           8.3954    2.9286    0.0000 H       1  UNL1        0.0692
     44 H          10.6509   -3.0707    0.0000 H       1  UNL1        0.0300
     45 H           7.2283    3.1701    0.0000 H       1  UNL1        0.0266
     46 H           6.8218    3.8557    0.0000 H       1  UNL1        0.0266
     47 H           6.9789   -2.5707    0.0000 H       1  UNL1        0.2922
     48 H          11.2900   -2.7976    0.0000 H       1  UNL1        0.0232
     49 H          11.5169   -1.9507    0.0000 H       1  UNL1        0.0232
     50 H          10.6700   -1.7237    0.0000 H       1  UNL1        0.0232
     51 H           9.4939   -3.7607    0.0000 H       1  UNL1        0.0232
     52 H          10.1139   -4.3807    0.0000 H       1  UNL1        0.0232
     53 H          10.7339   -3.7607    0.0000 H       1  UNL1        0.0232
     54 H           2.0000   -1.1267    0.0000 H       1  UNL1        0.2531
     55 H           6.0485    4.3012    0.0000 H       1  UNL1        0.0230
     56 H           5.2042    4.0644    0.0000 H       1  UNL1        0.0230
     57 H           5.4410    3.2202    0.0000 H       1  UNL1        0.0230
@<TRIPOS>BOND
     1     1     8    1
     2     1    12    1
     3     2     5    1
     4     2    10    1
     5     3    18   ar
     6     3    26   ar
     7     4    14    1
     8     4    47    1
     9     5    54    1
    10     6    21    2
    11     7    26    2
    12     8     9    1
    13     8    10    1
    14     8    30    1
    15     9    11    1
    16     9    31    1
    17     9    32    1
    18    10    15    1
    19    10    16    1
    20    11    12   ar
    21    11    14   ar
    22    12    13   ar
    23    13    18   ar
    24    13    19   ar
    25    14    17   ar
    26    15    36    1
    27    15    37    1
    28    15    38    1
    29    16    33    1
    30    16    34    1
    31    16    35    1
    32    17    18   ar
    33    17    21    1
    34    19    20    1
    35    19    23   ar
    36    20    25    1
    37    20    39    1
    38    20    40    1
    39    21    22    1
    40    22    24    1
    41    22    41    1
    42    22    42    1
    43    23    26   ar
    44    23    43    1
    45    24    27    1
    46    24    28    1
    47    24    44    1
    48    25    29    1
    49    25    45    1
    50    25    46    1
    51    27    51    1
    52    27    52    1
    53    27    53    1
    54    28    48    1
    55    28    49    1
    56    28    50    1
    57    29    55    1
    58    29    56    1
    59    29    57    1
