@<TRIPOS>MOLECULE
IMPHY002364
 29 32 0 0 0
SMALL
GASTEIGER

@<TRIPOS>ATOM
      1 O        2535.6200 2600.6100    0.0000 O.3     1  UNL1       -0.3491
      2 C        2500.7900 2580.5700    0.0000 C.3     1  UNL1        0.1745
      3 C        2570.2500 2580.6700    0.0000 C.3     1  UNL1        0.1392
      4 C        2570.2500 2540.3800    0.0000 C.3     1  UNL1        0.0572
      5 C        2604.7800 2520.1400    0.0000 C.3     1  UNL1        0.0859
      6 C        2570.2500 2500.0000    0.0000 C.ar    1  UNL1       -0.0060
      7 C        2570.2500 2459.7100    0.0000 C.ar    1  UNL1       -0.0200
      8 C        2535.7200 2439.5700    0.0000 C.ar    1  UNL1        0.0357
      9 C        2501.0900 2459.7100    0.0000 C.ar    1  UNL1        0.1749
     10 C        2501.0900 2500.0000    0.0000 C.ar    1  UNL1        0.2065
     11 C        2535.7200 2520.1400    0.0000 C.ar    1  UNL1        0.0400
     12 O        2466.4600 2520.0400    0.0000 O.3     1  UNL1       -0.3408
     13 S        2424.2900 2495.5300    0.0000 S.O2    1  UNL1        0.1433
     14 C        2389.6600 2515.4800    0.0000 C.3     1  UNL1        0.3068
     15 C        2355.0300 2495.5300    0.0000 C.2     1  UNL1        0.3924
     16 O        2320.4000 2515.4800    0.0000 O.co2   1  UNL1       -0.2435
     17 O        2355.0300 2455.5500    0.0000 O.co2   1  UNL1       -0.2435
     18 O        2404.3500 2460.9100    0.0000 O.2     1  UNL1       -0.1355
     19 O        2444.3300 2460.9100    0.0000 O.2     1  UNL1       -0.1355
     20 O        2466.8600 2439.1700    0.0000 O.3     1  UNL1       -0.4683
     21 C        2466.8600 2399.1900    0.0000 C.3     1  UNL1        0.2526
     22 C        2604.7800 2439.5700    0.0000 C.3     1  UNL1        0.0435
     23 C        2639.3100 2459.7100    0.0000 C.3     1  UNL1        0.0775
     24 N        2639.3100 2500.0000    0.0000 N.3     1  UNL1       -0.2642
     25 C        2679.6000 2500.0000    0.0000 C.3     1  UNL1        0.0990
     26 C        2679.6000 2540.3800    0.0000 C.2     1  UNL1       -0.0115
     27 C        2639.3100 2540.3800    0.0000 C.2     1  UNL1       -0.0085
     28 C        2639.3100 2580.6700    0.0000 C.2     1  UNL1       -0.0052
     29 C        2604.7800 2600.8100    0.0000 C.2     1  UNL1        0.0026
@<TRIPOS>BOND
     1     1     2    1
     2     3     1    1
     3     3     4    1
     4     3    29    1
     5     5     4    1
     6     5     6    1
     7     5    24    1
     8     5    27    1
     9     6     7   ar
    10     6    11   ar
    11     7     8   ar
    12     7    22    1
    13     8     9   ar
    14     9    20    1
    15    10     9   ar
    16    10    12    1
    17    11    10   ar
    18    12    13    1
    19    13    14    1
    20    13    18    2
    21    13    19    2
    22    14    15    1
    23    15    16   ar
    24    15    17   ar
    25    20    21    1
    26    23    22    1
    27    24    23    1
    28    24    25    1
    29    25    26    1
    30    27    26    2
    31    28    27    1
    32    29    28    2
