@<TRIPOS>MOLECULE
IMPHY008870
 59 62 0 0 0
SMALL
GASTEIGER

@<TRIPOS>ATOM
      1 O          10.4926    2.2722    0.0000 O.3     1  UNL1       -0.3878
      2 N           2.8641   -2.2416    0.0000 N.3     1  UNL1       -0.3159
      3 C           6.5251   -0.1892    0.0000 C.3     1  UNL1       -0.0285
      4 C           7.3912   -0.6892    0.0000 C.3     1  UNL1       -0.0301
      5 C           8.2572   -0.1892    0.0000 C.3     1  UNL1       -0.0250
      6 C           8.2572    0.8108    0.0000 C.3     1  UNL1       -0.0053
      7 C           5.6151   -0.6961    0.0000 C.3     1  UNL1       -0.0079
      8 C           6.5251    0.8108    0.0000 C.3     1  UNL1       -0.0484
      9 C           7.3912    1.3108    0.0000 C.3     1  UNL1       -0.0433
     10 C           7.4072   -1.7307    0.0000 C.3     1  UNL1       -0.0311
     11 C           9.2034   -0.4940    0.0000 C.3     1  UNL1       -0.0305
     12 C           5.6071   -1.7377    0.0000 C.2     1  UNL1       -0.0658
     13 C           4.6883   -0.1320    0.0000 C.3     1  UNL1       -0.0422
     14 C           9.2034    1.1155    0.0000 C.2     1  UNL1       -0.0394
     15 C           6.5092   -2.2585    0.0000 C.2     1  UNL1       -0.0839
     16 C           8.2572    1.8108    0.0000 C.3     1  UNL1       -0.0555
     17 C           5.6228    0.3039    0.0000 C.3     1  UNL1       -0.0556
     18 C           9.7870    0.3108    0.0000 C.2     1  UNL1       -0.0815
     19 C           4.6717   -2.2874    0.0000 C.3     1  UNL1       -0.0158
     20 C           3.7404   -0.6599    0.0000 C.3     1  UNL1       -0.0365
     21 C           3.7320   -1.7449    0.0000 C.3     1  UNL1        0.0111
     22 C           9.5141    2.0660    0.0000 C.3     1  UNL1        0.0740
     23 C           8.8462    2.8103    0.0000 C.3     1  UNL1       -0.0350
     24 C           2.0000   -1.7382    0.0000 C.3     1  UNL1       -0.0155
     25 H           7.2612    0.2358    0.0000 H       1  UNL1        0.0312
     26 H           8.1305   -1.1086    0.0000 H       1  UNL1        0.0310
     27 H           8.3471   -1.0345    0.0000 H       1  UNL1        0.0315
     28 H           6.3131    1.3934    0.0000 H       1  UNL1        0.0269
     29 H           5.9145    0.7031    0.0000 H       1  UNL1        0.0269
     30 H           7.7897    1.7857    0.0000 H       1  UNL1        0.0274
     31 H           6.9926    1.7857    0.0000 H       1  UNL1        0.0274
     32 H           7.6252   -2.3111    0.0000 H       1  UNL1        0.0310
     33 H           8.0164   -1.6152    0.0000 H       1  UNL1        0.0310
     34 H           8.9524   -1.0609    0.0000 H       1  UNL1        0.0310
     35 H           9.7408   -0.8032    0.0000 H       1  UNL1        0.0310
     36 H           5.0965    0.3347    0.0000 H       1  UNL1        0.0274
     37 H           4.2984    0.3500    0.0000 H       1  UNL1        0.0274
     38 H           6.5116   -2.8785    0.0000 H       1  UNL1        0.0572
     39 H           8.8772    1.8108    0.0000 H       1  UNL1        0.0238
     40 H           8.2572    2.4308    0.0000 H       1  UNL1        0.0238
     41 H           7.6372    1.8108    0.0000 H       1  UNL1        0.0238
     42 H           6.2428    0.2991    0.0000 H       1  UNL1        0.0238
     43 H           5.6276    0.9239    0.0000 H       1  UNL1        0.0238
     44 H           5.0028    0.3087    0.0000 H       1  UNL1        0.0238
     45 H          10.4070    0.3108    0.0000 H       1  UNL1        0.0573
     46 H           4.2744   -2.7634    0.0000 H       1  UNL1        0.0325
     47 H           5.0726   -2.7603    0.0000 H       1  UNL1        0.0325
     48 H           3.5358   -0.0747    0.0000 H       1  UNL1        0.0281
     49 H           3.1288   -0.7613    0.0000 H       1  UNL1        0.0281
     50 H           3.7304   -2.5949    0.0000 H       1  UNL1        0.0463
     51 H           9.7781    2.8740    0.0000 H       1  UNL1        0.0638
     52 H           2.8617   -2.8616    0.0000 H       1  UNL1        0.1219
     53 H           9.3077    3.2244    0.0000 H       1  UNL1        0.0258
     54 H           8.4322    3.2718    0.0000 H       1  UNL1        0.0258
     55 H           8.3848    2.3963    0.0000 H       1  UNL1        0.0258
     56 H          10.6852    2.8616    0.0000 H       1  UNL1        0.2102
     57 H           2.3121   -1.2025    0.0000 H       1  UNL1        0.0388
     58 H           1.4643   -1.4262    0.0000 H       1  UNL1        0.0388
     59 H           1.6879   -2.2740    0.0000 H       1  UNL1        0.0388
@<TRIPOS>BOND
     1     1    22    1
     2     1    56    1
     3     2    21    1
     4     2    24    1
     5     2    52    1
     6     3     4    1
     7     3     7    1
     8     3     8    1
     9     3    25    1
    10     4     5    1
    11     4    10    1
    12     4    26    1
    13     5     6    1
    14     5    11    1
    15     5    27    1
    16     6     9    1
    17     6    14    1
    18     6    16    1
    19     7    12    1
    20     7    13    1
    21     7    17    1
    22     8     9    1
    23     8    28    1
    24     8    29    1
    25     9    30    1
    26     9    31    1
    27    10    15    1
    28    10    32    1
    29    10    33    1
    30    11    18    1
    31    11    34    1
    32    11    35    1
    33    12    15    2
    34    12    19    1
    35    13    20    1
    36    13    36    1
    37    13    37    1
    38    14    18    2
    39    14    22    1
    40    15    38    1
    41    16    39    1
    42    16    40    1
    43    16    41    1
    44    17    42    1
    45    17    43    1
    46    17    44    1
    47    18    45    1
    48    19    21    1
    49    19    46    1
    50    19    47    1
    51    20    21    1
    52    20    48    1
    53    20    49    1
    54    21    50    1
    55    22    23    1
    56    22    51    1
    57    23    53    1
    58    23    54    1
    59    23    55    1
    60    24    57    1
    61    24    58    1
    62    24    59    1
