@<TRIPOS>MOLECULE
IMPHY014225
 100 102 0 0 0
SMALL
GASTEIGER

@<TRIPOS>ATOM
      1 O           4.3010   10.2788    0.0000 O.3     1  UNL1       -0.3626
      2 O           2.5314    7.2534    0.0000 O.3     1  UNL1       -0.3856
      3 O          11.7508   -7.6930    0.0000 O.3     1  UNL1       -0.3917
      4 O           7.5886   -7.9518    0.0000 O.2     1  UNL1       -0.2921
      5 C           4.7788    8.3302    0.0000 C.3     1  UNL1        0.1217
      6 C           6.1777    7.8214    0.0000 C.3     1  UNL1        0.0028
      7 C           3.4061    7.7382    0.0000 C.3     1  UNL1        0.0985
      8 C           5.0376    9.2962    0.0000 C.3     1  UNL1        0.0633
      9 C           6.4365    8.7874    0.0000 C.3     1  UNL1       -0.0183
     10 C           3.0640    8.6779    0.0000 C.3     1  UNL1        0.0052
     11 C           7.1722    7.9260    0.0000 C.3     1  UNL1       -0.0567
     12 C           6.7370    6.9924    0.0000 C.3     1  UNL1       -0.0567
     13 C           4.5200    7.3643    0.0000 C.2     1  UNL1       -0.0491
     14 C           3.0805    6.7927    0.0000 C.3     1  UNL1       -0.0329
     15 C           9.7156   -9.2911    0.0000 C.3     1  UNL1       -0.0201
     16 C           5.2271    6.6572    0.0000 C.2     1  UNL1       -0.0600
     17 C           9.2616   -8.4001    0.0000 C.3     1  UNL1        0.0377
     18 C          10.7033   -9.1347    0.0000 C.3     1  UNL1       -0.0208
     19 C           9.9688   -7.6930    0.0000 C.3     1  UNL1       -0.0139
     20 C          10.8598   -8.1470    0.0000 C.3     1  UNL1        0.0567
     21 C           9.8721  -10.2788    0.0000 C.3     1  UNL1       -0.0588
     22 C           8.8246   -9.7451    0.0000 C.3     1  UNL1       -0.0588
     23 C           8.3706   -8.8541    0.0000 C.3     1  UNL1       -0.0519
     24 C           4.9682    5.6913    0.0000 C.2     1  UNL1       -0.0507
     25 C           8.5545   -7.6930    0.0000 C.2     1  UNL1        0.1625
     26 C           4.0023    5.4325    0.0000 C.3     1  UNL1       -0.0397
     27 C           5.6753    4.9842    0.0000 C.2     1  UNL1       -0.0588
     28 C           8.8134   -6.7270    0.0000 C.2     1  UNL1       -0.0184
     29 C           8.1062   -6.0200    0.0000 C.2     1  UNL1       -0.0555
     30 C           5.4165    4.0182    0.0000 C.2     1  UNL1       -0.0613
     31 C           8.3651   -5.0540    0.0000 C.2     1  UNL1       -0.0503
     32 C           6.1236    3.3111    0.0000 C.2     1  UNL1       -0.0588
     33 C           9.3310   -4.7952    0.0000 C.3     1  UNL1       -0.0397
     34 C           7.6580   -4.3469    0.0000 C.2     1  UNL1       -0.0588
     35 C           5.8648    2.3452    0.0000 C.2     1  UNL1       -0.0504
     36 C           7.9168   -3.3810    0.0000 C.2     1  UNL1       -0.0613
     37 C           4.8989    2.0864    0.0000 C.3     1  UNL1       -0.0397
     38 C           6.5719    1.6381    0.0000 C.2     1  UNL1       -0.0588
     39 C           7.2097   -2.6739    0.0000 C.2     1  UNL1       -0.0588
     40 C           6.3131    0.6722    0.0000 C.2     1  UNL1       -0.0615
     41 C           7.4685   -1.7080    0.0000 C.2     1  UNL1       -0.0504
     42 C           7.0202   -0.0349    0.0000 C.2     1  UNL1       -0.0615
     43 C           6.7614   -1.0008    0.0000 C.2     1  UNL1       -0.0588
     44 C           8.4344   -1.4491    0.0000 C.3     1  UNL1       -0.0397
     45 H           5.2576   10.1172    0.0000 H       1  UNL1        0.0597
     46 H           7.0305    8.6096    0.0000 H       1  UNL1        0.0296
     47 H           6.6315    9.3759    0.0000 H       1  UNL1        0.0296
     48 H           2.8697    9.2667    0.0000 H       1  UNL1        0.0319
     49 H           2.4783    8.4747    0.0000 H       1  UNL1        0.0319
     50 H           7.2370    7.3094    0.0000 H       1  UNL1        0.0236
     51 H           7.7888    7.9908    0.0000 H       1  UNL1        0.0236
     52 H           7.1074    8.5426    0.0000 H       1  UNL1        0.0236
     53 H           6.2230    6.6457    0.0000 H       1  UNL1        0.0236
     54 H           7.0837    6.4785    0.0000 H       1  UNL1        0.0236
     55 H           7.2510    7.3392    0.0000 H       1  UNL1        0.0236
     56 H           4.0815    6.9260    0.0000 H       1  UNL1        0.0602
     57 H           2.4943    6.9946    0.0000 H       1  UNL1        0.0258
     58 H           2.8786    6.2065    0.0000 H       1  UNL1        0.0258
     59 H           3.6667    6.5908    0.0000 H       1  UNL1        0.0258
     60 H           2.0000    7.5727    0.0000 H       1  UNL1        0.2103
     61 H           5.7890    6.3952    0.0000 H       1  UNL1        0.0618
     62 H          10.7358   -9.7538    0.0000 H       1  UNL1        0.0295
     63 H          11.3225   -9.1671    0.0000 H       1  UNL1        0.0295
     64 H          10.3064   -7.1730    0.0000 H       1  UNL1        0.0300
     65 H           9.4869   -7.3028    0.0000 H       1  UNL1        0.0300
     66 H          11.3614   -8.5114    0.0000 H       1  UNL1        0.0594
     67 H           9.2597  -10.3758    0.0000 H       1  UNL1        0.0235
     68 H           9.9691  -10.8911    0.0000 H       1  UNL1        0.0235
     69 H          10.4844  -10.1818    0.0000 H       1  UNL1        0.0235
     70 H           8.5432   -9.1927    0.0000 H       1  UNL1        0.0235
     71 H           8.2722  -10.0266    0.0000 H       1  UNL1        0.0235
     72 H           9.1061  -10.2975    0.0000 H       1  UNL1        0.0235
     73 H           8.0892   -8.3016    0.0000 H       1  UNL1        0.0239
     74 H           7.8182   -9.1356    0.0000 H       1  UNL1        0.0239
     75 H           8.6521   -9.4065    0.0000 H       1  UNL1        0.0239
     76 H          12.2707   -8.0306    0.0000 H       1  UNL1        0.2098
     77 H           3.8418    6.0313    0.0000 H       1  UNL1        0.0278
     78 H           3.4034    5.2720    0.0000 H       1  UNL1        0.0278
     79 H           4.1628    4.8336    0.0000 H       1  UNL1        0.0278
     80 H           9.4122   -6.5666    0.0000 H       1  UNL1        0.0653
     81 H           6.2742    5.1446    0.0000 H       1  UNL1        0.0620
     82 H           7.5074   -6.1804    0.0000 H       1  UNL1        0.0621
     83 H           4.8177    3.8578    0.0000 H       1  UNL1        0.0618
     84 H           6.7225    3.4716    0.0000 H       1  UNL1        0.0620
     85 H           9.4915   -5.3941    0.0000 H       1  UNL1        0.0278
     86 H           9.9299   -4.6347    0.0000 H       1  UNL1        0.0278
     87 H           9.1705   -4.1963    0.0000 H       1  UNL1        0.0278
     88 H           7.0591   -4.5074    0.0000 H       1  UNL1        0.0620
     89 H           8.5157   -3.2205    0.0000 H       1  UNL1        0.0618
     90 H           4.7384    2.6853    0.0000 H       1  UNL1        0.0278
     91 H           4.3000    1.9259    0.0000 H       1  UNL1        0.0278
     92 H           5.0594    1.4875    0.0000 H       1  UNL1        0.0278
     93 H           7.1708    1.7986    0.0000 H       1  UNL1        0.0620
     94 H           6.6108   -2.8344    0.0000 H       1  UNL1        0.0620
     95 H           5.7142    0.5117    0.0000 H       1  UNL1        0.0618
     96 H           7.6191    0.1255    0.0000 H       1  UNL1        0.0618
     97 H           6.1625   -1.1613    0.0000 H       1  UNL1        0.0620
     98 H           8.5949   -2.0480    0.0000 H       1  UNL1        0.0278
     99 H           9.0333   -1.2887    0.0000 H       1  UNL1        0.0278
    100 H           8.2739   -0.8503    0.0000 H       1  UNL1        0.0278
@<TRIPOS>BOND
     1     1     5    1
     2     1     8    1
     3     7     2    1
     4     2    60    1
     5    20     3    1
     6     3    76    1
     7     4    25    2
     8     5     6    1
     9     5     7    1
    10     5    13    1
    11     6     9    1
    12     6    11    1
    13     6    12    1
    14     7    10    1
    15     7    14    1
    16     8     9    1
    17     8    10    1
    18     8    45    1
    19     9    46    1
    20     9    47    1
    21    10    48    1
    22    10    49    1
    23    11    50    1
    24    11    51    1
    25    11    52    1
    26    12    53    1
    27    12    54    1
    28    12    55    1
    29    13    16    2
    30    13    56    1
    31    14    57    1
    32    14    58    1
    33    14    59    1
    34    15    17    1
    35    15    18    1
    36    15    21    1
    37    15    22    1
    38    16    24    1
    39    16    61    1
    40    17    19    1
    41    17    23    1
    42    17    25    1
    43    18    20    1
    44    18    62    1
    45    18    63    1
    46    19    20    1
    47    19    64    1
    48    19    65    1
    49    20    66    1
    50    21    67    1
    51    21    68    1
    52    21    69    1
    53    22    70    1
    54    22    71    1
    55    22    72    1
    56    23    73    1
    57    23    74    1
    58    23    75    1
    59    24    26    1
    60    24    27    2
    61    25    28    1
    62    26    77    1
    63    26    78    1
    64    26    79    1
    65    27    30    1
    66    27    81    1
    67    28    29    2
    68    28    80    1
    69    29    31    1
    70    29    82    1
    71    30    32    2
    72    30    83    1
    73    31    33    1
    74    31    34    2
    75    32    35    1
    76    32    84    1
    77    33    85    1
    78    33    86    1
    79    33    87    1
    80    34    36    1
    81    34    88    1
    82    35    37    1
    83    35    38    2
    84    36    39    2
    85    36    89    1
    86    37    90    1
    87    37    91    1
    88    37    92    1
    89    38    40    1
    90    38    93    1
    91    39    41    1
    92    39    94    1
    93    40    42    2
    94    40    95    1
    95    41    43    2
    96    41    44    1
    97    42    43    1
    98    42    96    1
    99    43    97    1
   100    44    98    1
   101    44    99    1
   102    44   100    1
