@<TRIPOS>MOLECULE
IMPHY001396
 130 129 0 0 0
SMALL
GASTEIGER

@<TRIPOS>ATOM
      1 P           6.0010   -6.3170    0.0000 P.3     1  UNL1        0.4751
      2 O           9.4651   -6.3170    0.0000 O.3     1  UNL1       -0.4555
      3 O           9.4651   -4.3170    0.0000 O.3     1  UNL1       -0.4608
      4 O          10.3312   -4.8170    0.0000 O.2     1  UNL1       -0.2508
      5 O           8.5991   -2.8170    0.0000 O.2     1  UNL1       -0.2509
      6 O           6.8671   -5.8170    0.0000 O.3     1  UNL1       -0.2828
      7 O           5.1350   -6.8170    0.0000 O.3     1  UNL1       -0.2854
      8 O           5.5010   -5.4510    0.0000 O.3     1  UNL1       -0.3025
      9 O           6.5010   -7.1830    0.0000 O.2     1  UNL1       -0.2273
     10 N           2.5369   -6.3170    0.0000 N.3     1  UNL1       -0.3279
     11 C          18.1254   -6.3170    0.0000 C.3     1  UNL1       -0.0531
     12 C          18.9914   -5.8170    0.0000 C.3     1  UNL1       -0.0531
     13 C          17.2594   -5.8170    0.0000 C.3     1  UNL1       -0.0531
     14 C          19.8574   -6.3170    0.0000 C.3     1  UNL1       -0.0531
     15 C          16.3933   -6.3170    0.0000 C.3     1  UNL1       -0.0531
     16 C          20.7235   -5.8170    0.0000 C.3     1  UNL1       -0.0531
     17 C          15.5273   -5.8170    0.0000 C.3     1  UNL1       -0.0531
     18 C          21.5895   -6.3170    0.0000 C.3     1  UNL1       -0.0531
     19 C          14.6613   -6.3170    0.0000 C.3     1  UNL1       -0.0531
     20 C          22.4555   -5.8170    0.0000 C.3     1  UNL1       -0.0531
     21 C          13.7953   -5.8170    0.0000 C.3     1  UNL1       -0.0530
     22 C          23.3215   -6.3170    0.0000 C.3     1  UNL1       -0.0531
     23 C          12.9292    1.6830    0.0000 C.3     1  UNL1       -0.0531
     24 C          12.0632    1.1830    0.0000 C.3     1  UNL1       -0.0531
     25 C          12.9292    2.6830    0.0000 C.3     1  UNL1       -0.0531
     26 C          12.0632    0.1830    0.0000 C.3     1  UNL1       -0.0531
     27 C          13.7953    3.1830    0.0000 C.3     1  UNL1       -0.0531
     28 C          12.9292   -6.3170    0.0000 C.3     1  UNL1       -0.0526
     29 C          24.1876   -5.8170    0.0000 C.3     1  UNL1       -0.0531
     30 C          13.7953    4.1830    0.0000 C.3     1  UNL1       -0.0531
     31 C          11.1972   -0.3170    0.0000 C.3     1  UNL1       -0.0530
     32 C          14.6613    4.6830    0.0000 C.3     1  UNL1       -0.0531
     33 C          11.1972   -1.3170    0.0000 C.3     1  UNL1       -0.0526
     34 C          12.0632   -5.8170    0.0000 C.3     1  UNL1       -0.0430
     35 C          25.0536   -6.3170    0.0000 C.3     1  UNL1       -0.0533
     36 C          14.6613    5.6830    0.0000 C.3     1  UNL1       -0.0533
     37 C          10.3312   -1.8170    0.0000 C.3     1  UNL1       -0.0430
     38 C          11.1972   -6.3170    0.0000 C.3     1  UNL1        0.0450
     39 C          25.9196   -5.8170    0.0000 C.3     1  UNL1       -0.0559
     40 C          15.5273    6.1830    0.0000 C.3     1  UNL1       -0.0559
     41 C          10.3312   -2.8170    0.0000 C.3     1  UNL1        0.0449
     42 C          26.7856   -6.3170    0.0000 C.3     1  UNL1       -0.0653
     43 C          10.3312   -5.8170    0.0000 C.2     1  UNL1        0.3075
     44 C          15.5273    7.1830    0.0000 C.3     1  UNL1       -0.0653
     45 C           8.5991   -5.8170    0.0000 C.3     1  UNL1        0.1605
     46 C           9.4651   -3.3170    0.0000 C.2     1  UNL1        0.3072
     47 C           8.5991   -4.8170    0.0000 C.3     1  UNL1        0.1315
     48 C           7.7331   -6.3170    0.0000 C.3     1  UNL1        0.0993
     49 C           4.2690   -6.3170    0.0000 C.3     1  UNL1        0.0713
     50 C           3.4030   -6.8170    0.0000 C.3     1  UNL1        0.0172
     51 H          17.7269   -6.7919    0.0000 H       1  UNL1        0.0265
     52 H          18.5239   -6.7919    0.0000 H       1  UNL1        0.0265
     53 H          19.3899   -5.3420    0.0000 H       1  UNL1        0.0265
     54 H          18.5929   -5.3420    0.0000 H       1  UNL1        0.0265
     55 H          17.6579   -5.3420    0.0000 H       1  UNL1        0.0265
     56 H          16.8608   -5.3420    0.0000 H       1  UNL1        0.0265
     57 H          19.4589   -6.7919    0.0000 H       1  UNL1        0.0265
     58 H          20.2560   -6.7919    0.0000 H       1  UNL1        0.0265
     59 H          15.9948   -6.7919    0.0000 H       1  UNL1        0.0265
     60 H          16.7919   -6.7919    0.0000 H       1  UNL1        0.0265
     61 H          21.1220   -5.3420    0.0000 H       1  UNL1        0.0265
     62 H          20.3249   -5.3420    0.0000 H       1  UNL1        0.0265
     63 H          15.9258   -5.3420    0.0000 H       1  UNL1        0.0265
     64 H          15.1288   -5.3420    0.0000 H       1  UNL1        0.0265
     65 H          21.1910   -6.7919    0.0000 H       1  UNL1        0.0265
     66 H          21.9880   -6.7919    0.0000 H       1  UNL1        0.0265
     67 H          14.2628   -6.7919    0.0000 H       1  UNL1        0.0265
     68 H          15.0598   -6.7919    0.0000 H       1  UNL1        0.0265
     69 H          22.8540   -5.3420    0.0000 H       1  UNL1        0.0265
     70 H          22.0570   -5.3420    0.0000 H       1  UNL1        0.0265
     71 H          14.1938   -5.3420    0.0000 H       1  UNL1        0.0265
     72 H          13.3967   -5.3420    0.0000 H       1  UNL1        0.0265
     73 H          22.9230   -6.7919    0.0000 H       1  UNL1        0.0265
     74 H          23.7201   -6.7919    0.0000 H       1  UNL1        0.0265
     75 H          13.1413    1.1004    0.0000 H       1  UNL1        0.0265
     76 H          13.5398    1.7907    0.0000 H       1  UNL1        0.0265
     77 H          11.8512    1.7656    0.0000 H       1  UNL1        0.0265
     78 H          11.4526    1.0754    0.0000 H       1  UNL1        0.0265
     79 H          12.7172    3.2656    0.0000 H       1  UNL1        0.0265
     80 H          12.3187    2.5753    0.0000 H       1  UNL1        0.0265
     81 H          12.2753   -0.3996    0.0000 H       1  UNL1        0.0265
     82 H          12.6738    0.2907    0.0000 H       1  UNL1        0.0265
     83 H          14.0073    2.6004    0.0000 H       1  UNL1        0.0265
     84 H          14.4058    3.2907    0.0000 H       1  UNL1        0.0265
     85 H          12.5307   -6.7919    0.0000 H       1  UNL1        0.0265
     86 H          13.3278   -6.7919    0.0000 H       1  UNL1        0.0265
     87 H          24.5861   -5.3420    0.0000 H       1  UNL1        0.0265
     88 H          23.7890   -5.3420    0.0000 H       1  UNL1        0.0265
     89 H          10.9851    0.2656    0.0000 H       1  UNL1        0.0265
     90 H          10.5866   -0.4246    0.0000 H       1  UNL1        0.0265
     91 H          13.5832    4.7656    0.0000 H       1  UNL1        0.0265
     92 H          13.1847    4.0754    0.0000 H       1  UNL1        0.0265
     93 H          14.8733    4.1004    0.0000 H       1  UNL1        0.0265
     94 H          15.2719    4.7907    0.0000 H       1  UNL1        0.0265
     95 H          11.4092   -1.8996    0.0000 H       1  UNL1        0.0265
     96 H          11.8078   -1.2093    0.0000 H       1  UNL1        0.0265
     97 H          12.4617   -5.3420    0.0000 H       1  UNL1        0.0270
     98 H          11.6647   -5.3420    0.0000 H       1  UNL1        0.0270
     99 H          24.6551   -6.7919    0.0000 H       1  UNL1        0.0265
    100 H          25.4521   -6.7919    0.0000 H       1  UNL1        0.0265
    101 H          14.4492    6.2656    0.0000 H       1  UNL1        0.0265
    102 H          14.0507    5.5754    0.0000 H       1  UNL1        0.0265
    103 H          10.1191   -1.2344    0.0000 H       1  UNL1        0.0270
    104 H           9.7206   -1.9246    0.0000 H       1  UNL1        0.0270
    105 H          10.7987   -6.7919    0.0000 H       1  UNL1        0.0377
    106 H          11.5957   -6.7919    0.0000 H       1  UNL1        0.0377
    107 H          26.3182   -5.3420    0.0000 H       1  UNL1        0.0263
    108 H          25.5211   -5.3420    0.0000 H       1  UNL1        0.0263
    109 H          15.7394    5.6004    0.0000 H       1  UNL1        0.0263
    110 H          16.1379    6.2907    0.0000 H       1  UNL1        0.0263
    111 H          10.5432   -3.3996    0.0000 H       1  UNL1        0.0377
    112 H          10.9417   -2.7093    0.0000 H       1  UNL1        0.0377
    113 H          26.4756   -6.8539    0.0000 H       1  UNL1        0.0230
    114 H          27.3226   -6.6270    0.0000 H       1  UNL1        0.0230
    115 H          27.0956   -5.7800    0.0000 H       1  UNL1        0.0230
    116 H          16.1473    7.1830    0.0000 H       1  UNL1        0.0230
    117 H          15.5273    7.8030    0.0000 H       1  UNL1        0.0230
    118 H          14.9073    7.1830    0.0000 H       1  UNL1        0.0230
    119 H           8.5991   -6.4370    0.0000 H       1  UNL1        0.0792
    120 H           8.3871   -4.2344    0.0000 H       1  UNL1        0.0736
    121 H           7.9885   -4.9246    0.0000 H       1  UNL1        0.0736
    122 H           7.3346   -6.7919    0.0000 H       1  UNL1        0.0604
    123 H           8.1316   -6.7919    0.0000 H       1  UNL1        0.0604
    124 H           5.8110   -4.9140    0.0000 H       1  UNL1        0.2220
    125 H           4.6675   -5.8420    0.0000 H       1  UNL1        0.0578
    126 H           3.8705   -5.8420    0.0000 H       1  UNL1        0.0578
    127 H           3.0044   -7.2919    0.0000 H       1  UNL1        0.0444
    128 H           3.8015   -7.2919    0.0000 H       1  UNL1        0.0444
    129 H           2.0000   -6.6270    0.0000 H       1  UNL1        0.1183
    130 H           2.5369   -5.6970    0.0000 H       1  UNL1        0.1183
@<TRIPOS>BOND
     1     1     6    1
     2     1     7    1
     3     1     8    1
     4     1     9    2
     5     2    43    1
     6    45     2    1
     7     3    46    1
     8     3    47    1
     9     4    43    2
    10     5    46    2
    11     6    48    1
    12     7    49    1
    13     8   124    1
    14    10    50    1
    15    10   129    1
    16    10   130    1
    17    11    12    1
    18    11    13    1
    19    11    51    1
    20    11    52    1
    21    12    14    1
    22    12    53    1
    23    12    54    1
    24    13    15    1
    25    13    55    1
    26    13    56    1
    27    14    16    1
    28    14    57    1
    29    14    58    1
    30    15    17    1
    31    15    59    1
    32    15    60    1
    33    16    18    1
    34    16    61    1
    35    16    62    1
    36    17    19    1
    37    17    63    1
    38    17    64    1
    39    18    20    1
    40    18    65    1
    41    18    66    1
    42    19    21    1
    43    19    67    1
    44    19    68    1
    45    20    22    1
    46    20    69    1
    47    20    70    1
    48    21    28    1
    49    21    71    1
    50    21    72    1
    51    22    29    1
    52    22    73    1
    53    22    74    1
    54    23    24    1
    55    23    25    1
    56    23    75    1
    57    23    76    1
    58    24    26    1
    59    24    77    1
    60    24    78    1
    61    25    27    1
    62    25    79    1
    63    25    80    1
    64    26    31    1
    65    26    81    1
    66    26    82    1
    67    27    30    1
    68    27    83    1
    69    27    84    1
    70    28    34    1
    71    28    85    1
    72    28    86    1
    73    29    35    1
    74    29    87    1
    75    29    88    1
    76    30    32    1
    77    30    91    1
    78    30    92    1
    79    31    33    1
    80    31    89    1
    81    31    90    1
    82    32    36    1
    83    32    93    1
    84    32    94    1
    85    33    37    1
    86    33    95    1
    87    33    96    1
    88    34    38    1
    89    34    97    1
    90    34    98    1
    91    35    39    1
    92    35    99    1
    93    35   100    1
    94    36    40    1
    95    36   101    1
    96    36   102    1
    97    37    41    1
    98    37   103    1
    99    37   104    1
   100    38    43    1
   101    38   105    1
   102    38   106    1
   103    39    42    1
   104    39   107    1
   105    39   108    1
   106    40    44    1
   107    40   109    1
   108    40   110    1
   109    41    46    1
   110    41   111    1
   111    41   112    1
   112    42   113    1
   113    42   114    1
   114    42   115    1
   115    44   116    1
   116    44   117    1
   117    44   118    1
   118    45    47    1
   119    45    48    1
   120    45   119    1
   121    47   120    1
   122    47   121    1
   123    48   122    1
   124    48   123    1
   125    49    50    1
   126    49   125    1
   127    49   126    1
   128    50   127    1
   129    50   128    1
