@<TRIPOS>MOLECULE
IMPHY001009
 49 54 0 0 0
SMALL
GASTEIGER

@<TRIPOS>ATOM
      1 O           5.0805    1.4784    0.0000 O.3     1  UNL1       -0.3355
      2 O           6.5600    1.3721    0.0000 O.3     1  UNL1       -0.4672
      3 O           7.9117    0.9564    0.0000 O.2     1  UNL1       -0.2497
      4 O           7.9551   -1.1050    0.0000 O.2     1  UNL1       -0.2998
      5 N           6.0235   -0.0562    0.0000 N.3     1  UNL1       -0.2661
      6 N           4.3106   -1.6296    0.0000 N.pl3   1  UNL1       -0.3143
      7 C           4.3106   -0.2362    0.0000 C.3     1  UNL1        0.0710
      8 C           4.8168   -0.9329    0.0000 C.3     1  UNL1        0.1628
      9 C           5.6732   -0.8429    0.0000 C.3     1  UNL1        0.0603
     10 C           6.4966   -0.3588    0.0000 C.3     1  UNL1        0.1427
     11 C           4.6608    0.5505    0.0000 C.3     1  UNL1        0.0027
     12 C           5.5173    0.6405    0.0000 C.3     1  UNL1        0.1161
     13 C           7.0358   -1.4496    0.0000 C.3     1  UNL1        0.0062
     14 C           6.1794   -1.5396    0.0000 C.3     1  UNL1       -0.0249
     15 C           3.4916   -0.5023    0.0000 C.ar    1  UNL1       -0.0143
     16 C           6.8799    0.0338    0.0000 C.3     1  UNL1        0.0231
     17 C           7.3861   -0.6629    0.0000 C.2     1  UNL1       -0.0551
     18 C           3.4916   -1.3635    0.0000 C.ar    1  UNL1        0.0331
     19 C           7.0280    0.4884    0.0000 C.2     1  UNL1        0.3217
     20 C           7.4871   -0.2213    0.0000 C.2     1  UNL1        0.1387
     21 C           2.7458   -0.0718    0.0000 C.ar    1  UNL1       -0.0561
     22 C           8.3806   -0.5583    0.0000 C.2     1  UNL1       -0.0863
     23 C           2.7458   -1.7941    0.0000 C.ar    1  UNL1       -0.0405
     24 C           2.0000   -0.5023    0.0000 C.ar    1  UNL1       -0.0614
     25 C           2.0000   -1.3635    0.0000 C.ar    1  UNL1       -0.0600
     26 C           8.9684   -1.3674    0.0000 C.3     1  UNL1       -0.0465
     27 C           7.0913    2.2192    0.0000 C.3     1  UNL1        0.0817
     28 H           5.3275   -1.6194    0.0000 H       1  UNL1        0.0509
     29 H           4.7041    1.1690    0.0000 H       1  UNL1        0.0314
     30 H           4.0593    0.7005    0.0000 H       1  UNL1        0.0314
     31 H           6.2400    1.0880    0.0000 H       1  UNL1        0.0770
     32 H           7.5355   -2.1372    0.0000 H       1  UNL1        0.0362
     33 H           5.6221   -1.8114    0.0000 H       1  UNL1        0.0288
     34 H           6.3503   -2.1356    0.0000 H       1  UNL1        0.0288
     35 H           4.5022   -2.2192    0.0000 H       1  UNL1        0.1488
     36 H           7.4372    0.3056    0.0000 H       1  UNL1        0.0473
     37 H           6.7090    0.6298    0.0000 H       1  UNL1        0.0473
     38 H           7.8166    0.3040    0.0000 H       1  UNL1        0.1038
     39 H           2.7458    0.5482    0.0000 H       1  UNL1        0.0621
     40 H           8.6328    0.0081    0.0000 H       1  UNL1        0.0569
     41 H           2.7458   -2.4141    0.0000 H       1  UNL1        0.0636
     42 H           1.4631   -0.1923    0.0000 H       1  UNL1        0.0618
     43 H           1.4631   -1.6735    0.0000 H       1  UNL1        0.0618
     44 H           8.4668   -1.7318    0.0000 H       1  UNL1        0.0272
     45 H           9.3328   -1.8689    0.0000 H       1  UNL1        0.0272
     46 H           9.4700   -1.0029    0.0000 H       1  UNL1        0.0272
     47 H           7.6165    1.8898    0.0000 H       1  UNL1        0.0661
     48 H           7.4207    2.7445    0.0000 H       1  UNL1        0.0661
     49 H           6.5661    2.5487    0.0000 H       1  UNL1        0.0661
@<TRIPOS>BOND
     1     1     8    1
     2     1    12    1
     3     2    19    1
     4     2    27    1
     5     3    19    2
     6     4    20    2
     7     5     9    1
     8     5    12    1
     9     5    16    1
    10     8     6    1
    11     6    18    1
    12     6    35    1
    13     7     8    1
    14     7    10    1
    15     7    11    1
    16     7    15    1
    17     8     9    1
    18     9    14    1
    19     9    28    1
    20    10    13    1
    21    10    19    1
    22    10    20    1
    23    11    12    1
    24    11    29    1
    25    11    30    1
    26    12    31    1
    27    13    14    1
    28    13    17    1
    29    13    32    1
    30    14    33    1
    31    14    34    1
    32    15    18   ar
    33    15    21   ar
    34    16    17    1
    35    16    36    1
    36    16    37    1
    37    17    22    2
    38    18    23   ar
    39    20    38    1
    40    21    24   ar
    41    21    39    1
    42    22    26    1
    43    22    40    1
    44    23    25   ar
    45    23    41    1
    46    24    25   ar
    47    24    42    1
    48    25    43    1
    49    26    44    1
    50    26    45    1
    51    26    46    1
    52    27    47    1
    53    27    48    1
    54    27    49    1
