@<TRIPOS>MOLECULE
IMPHY011257
 56 62 0 0 0
SMALL
GASTEIGER

@<TRIPOS>ATOM
      1 O           6.9328    2.6314    0.0000 O.co2   1  UNL1       -0.7747
      2 O           7.6682   -2.4736    0.0000 O.3     1  UNL1       -0.3717
      3 O           4.4011   -2.5115    0.0000 O.2     1  UNL1       -0.2752
      4 O           2.0000    0.7990    0.0000 O.3     1  UNL1       -0.4914
      5 O           2.0000   -1.1252    0.0000 O.3     1  UNL1       -0.4914
      6 N           6.6757    1.6651    0.0000 N.3     1  UNL1        0.2230
      7 N           5.2671   -1.0873    0.0000 N.am    1  UNL1       -0.2665
      8 C           6.0675    0.2990    0.0000 C.3     1  UNL1        0.0642
      9 C           6.8678    0.7611    0.0000 C.3     1  UNL1       -0.0090
     10 C           6.0675   -0.6252    0.0000 C.3     1  UNL1        0.0518
     11 C           6.8678   -1.0873    0.0000 C.3     1  UNL1        0.0127
     12 C           7.6682   -0.6252    0.0000 C.3     1  UNL1       -0.0029
     13 C           7.6682    0.2990    0.0000 C.3     1  UNL1       -0.0017
     14 C           5.3807    0.9174    0.0000 C.3     1  UNL1        0.0040
     15 C           5.7566    1.7617    0.0000 C.3     1  UNL1       -0.0310
     16 C           4.4668    0.2990    0.0000 C.ar    1  UNL1       -0.0088
     17 C           8.4927    0.8638    0.0000 C.3     1  UNL1       -0.0102
     18 C           8.5285   -0.9628    0.0000 C.2     1  UNL1       -0.0233
     19 C           6.8678   -2.0115    0.0000 C.3     1  UNL1        0.0724
     20 C           4.4668   -0.6252    0.0000 C.ar    1  UNL1        0.0443
     21 C           6.0675   -2.4736    0.0000 C.3     1  UNL1        0.0511
     22 C           5.2671   -2.0115    0.0000 C.2     1  UNL1        0.2225
     23 C           8.8418   -1.6007    0.0000 C.2     1  UNL1       -0.0542
     24 C           3.6664    0.7611    0.0000 C.ar    1  UNL1       -0.0106
     25 C           8.3900   -2.4633    0.0000 C.3     1  UNL1        0.0667
     26 C           3.6664   -1.0873    0.0000 C.ar    1  UNL1        0.0054
     27 C           2.8660    0.2990    0.0000 C.ar    1  UNL1        0.1619
     28 C           2.8660   -0.6252    0.0000 C.ar    1  UNL1        0.1633
     29 C           2.0000    1.7990    0.0000 C.3     1  UNL1        0.0790
     30 C           2.0000   -2.1252    0.0000 C.3     1  UNL1        0.0790
     31 H           7.6103    1.1749    0.0000 H       1  UNL1        0.0860
     32 H           6.0701   -1.4752    0.0000 H       1  UNL1        0.0519
     33 H           7.6040   -1.5123    0.0000 H       1  UNL1        0.0350
     34 H           8.3705   -0.1464    0.0000 H       1  UNL1        0.0353
     35 H           8.2788    0.1913    0.0000 H       1  UNL1        0.0326
     36 H           7.8802    0.8816    0.0000 H       1  UNL1        0.0326
     37 H           4.8437    1.2274    0.0000 H       1  UNL1        0.0328
     38 H           5.0162    0.4158    0.0000 H       1  UNL1        0.0328
     39 H           5.8855    2.3681    0.0000 H       1  UNL1        0.0814
     40 H           5.1669    1.9532    0.0000 H       1  UNL1        0.0814
     41 H           9.1078    0.7862    0.0000 H       1  UNL1        0.0863
     42 H           8.6582    1.4612    0.0000 H       1  UNL1        0.0863
     43 H           6.8605   -2.8614    0.0000 H       1  UNL1        0.0604
     44 H           5.6690   -2.9485    0.0000 H       1  UNL1        0.0384
     45 H           6.4660   -2.9485    0.0000 H       1  UNL1        0.0384
     46 H           9.4617   -1.6088    0.0000 H       1  UNL1        0.0596
     47 H           3.6664    1.3811    0.0000 H       1  UNL1        0.0659
     48 H           8.2965   -3.0762    0.0000 H       1  UNL1        0.0604
     49 H           8.9791   -2.6565    0.0000 H       1  UNL1        0.0604
     50 H           3.6664   -1.7073    0.0000 H       1  UNL1        0.0674
     51 H           2.6200    1.7990    0.0000 H       1  UNL1        0.0660
     52 H           2.0000    2.4190    0.0000 H       1  UNL1        0.0660
     53 H           1.3800    1.7990    0.0000 H       1  UNL1        0.0660
     54 H           1.3800   -2.1252    0.0000 H       1  UNL1        0.0660
     55 H           2.0000   -2.7452    0.0000 H       1  UNL1        0.0660
     56 H           2.6200   -2.1252    0.0000 H       1  UNL1        0.0660
@<TRIPOS>UNITY_ATOM_ATTR
1 1
charge -1
6 1
charge 1
@<TRIPOS>BOND
     1     6     1    1
     2     2    19    1
     3     2    25    1
     4     3    22    2
     5     4    27    1
     6     4    29    1
     7     5    28    1
     8     5    30    1
     9     6     9    1
    10     6    15    1
    11     6    17    1
    12     7    10    1
    13     7    20    1
    14     7    22   am
    15     8     9    1
    16     8    10    1
    17     8    14    1
    18     8    16    1
    19     9    13    1
    20     9    31    1
    21    10    11    1
    22    10    32    1
    23    11    12    1
    24    11    19    1
    25    11    33    1
    26    12    13    1
    27    12    18    1
    28    12    34    1
    29    13    35    1
    30    13    36    1
    31    14    15    1
    32    14    37    1
    33    14    38    1
    34    15    39    1
    35    15    40    1
    36    16    20   ar
    37    16    24   ar
    38    17    18    1
    39    17    41    1
    40    17    42    1
    41    18    23    2
    42    19    21    1
    43    19    43    1
    44    20    26   ar
    45    21    22    1
    46    21    44    1
    47    21    45    1
    48    23    25    1
    49    23    46    1
    50    24    27   ar
    51    24    47    1
    52    25    48    1
    53    25    49    1
    54    26    28   ar
    55    26    50    1
    56    27    28   ar
    57    29    51    1
    58    29    52    1
    59    29    53    1
    60    30    54    1
    61    30    55    1
    62    30    56    1
