@<TRIPOS>MOLECULE
IMPHY011533
 23 22 0 0 0
SMALL
GASTEIGER

@<TRIPOS>ATOM
      1 C           2.0000   -1.7500    0.0000 C.3     1  UNL1       -0.0459
      2 C           2.8660   -1.2500    0.0000 C.2     1  UNL1       -0.0789
      3 C           3.7320   -1.7500    0.0000 C.2     1  UNL1       -0.0148
      4 C          10.6603    1.2500    0.0000 C.2     1  UNL1       -0.0541
      5 C          10.6603    0.2500    0.0000 C.2     1  UNL1       -0.0683
      6 C           9.7942    1.7500    0.0000 C.2     1  UNL1       -0.0106
      7 C           4.5981   -1.2500    0.0000 C.1     1  UNL1       -0.0606
      8 C          11.5263   -0.2500    0.0000 C.2     1  UNL1       -0.0987
      9 C           8.9282    1.2500    0.0000 C.1     1  UNL1       -0.0602
     10 C           5.4641   -0.7500    0.0000 C.1     1  UNL1       -0.0092
     11 C           8.0622    0.7500    0.0000 C.1     1  UNL1       -0.0092
     12 C           6.3301   -0.2500    0.0000 C.1     1  UNL1       -0.0006
     13 C           7.1962    0.2500    0.0000 C.1     1  UNL1       -0.0006
     14 H           1.6900   -1.2131    0.0000 H       1  UNL1        0.0272
     15 H           1.4631   -2.0600    0.0000 H       1  UNL1        0.0272
     16 H           2.3100   -2.2869    0.0000 H       1  UNL1        0.0272
     17 H           2.8660   -0.6300    0.0000 H       1  UNL1        0.0575
     18 H           3.7320   -2.3700    0.0000 H       1  UNL1        0.0709
     19 H          11.1972    1.5600    0.0000 H       1  UNL1        0.0624
     20 H          10.1233   -0.0600    0.0000 H       1  UNL1        0.0612
     21 H           9.7942    2.3700    0.0000 H       1  UNL1        0.0712
     22 H          11.5263   -0.8700    0.0000 H       1  UNL1        0.0535
     23 H          12.0632    0.0600    0.0000 H       1  UNL1        0.0535
@<TRIPOS>BOND
     1     1     2    1
     2     1    14    1
     3     1    15    1
     4     1    16    1
     5     2     3    2
     6     2    17    1
     7     3     7    1
     8     3    18    1
     9     4     5    1
    10     4     6    2
    11     4    19    1
    12     5     8    2
    13     5    20    1
    14     6     9    1
    15     6    21    1
    16     7    10    3
    17     8    22    1
    18     8    23    1
    19     9    11    3
    20    10    12    1
    21    11    13    1
    22    12    13    3
