@<TRIPOS>MOLECULE
IMPHY005587
 18 19 0 0 0
SMALL
GASTEIGER

@<TRIPOS>ATOM
      1 O           6.0290   -1.0347    0.0000 O.2     1  UNL1       -0.4220
      2 O           2.5369   -1.0000    0.0000 O.3     1  UNL1       -0.5066
      3 O           7.7991   -1.0241    0.0000 O.2     1  UNL1       -0.2452
      4 C           5.1350    0.5000    0.0000 C.ar    1  UNL1        0.0178
      5 C           5.1350   -0.5000    0.0000 C.ar    1  UNL1        0.1425
      6 C           4.2690    1.0000    0.0000 C.ar    1  UNL1       -0.0476
      7 C           4.2690   -1.0000    0.0000 C.ar    1  UNL1        0.0229
      8 C           6.0290    1.0347    0.0000 C.ar    1  UNL1       -0.0443
      9 C           3.4030   -0.5000    0.0000 C.ar    1  UNL1        0.1204
     10 C           3.4030    0.5000    0.0000 C.ar    1  UNL1       -0.0194
     11 C           6.9350    0.5208    0.0000 C.ar    1  UNL1        0.0236
     12 C           6.9350   -0.5208    0.0000 C.ar    1  UNL1        0.3372
     13 H           4.2690    1.6200    0.0000 H       1  UNL1        0.0626
     14 H           4.2690   -1.6200    0.0000 H       1  UNL1        0.0691
     15 H           6.0218    1.6546    0.0000 H       1  UNL1        0.0627
     16 H           2.8660    0.8100    0.0000 H       1  UNL1        0.0654
     17 H           7.4708    0.8329    0.0000 H       1  UNL1        0.0689
     18 H           2.0000   -0.6900    0.0000 H       1  UNL1        0.2921
@<TRIPOS>BOND
     1     1     5   ar
     2     1    12   ar
     3     2     9    1
     4     2    18    1
     5     3    12    2
     6     4     5   ar
     7     4     6   ar
     8     4     8   ar
     9     5     7   ar
    10     6    10   ar
    11     6    13    1
    12     7     9   ar
    13     7    14    1
    14     8    11   ar
    15     8    15    1
    16     9    10   ar
    17    10    16    1
    18    11    12   ar
    19    11    17    1
