@<TRIPOS>MOLECULE
IMPHY012921
 39 39 0 0 0
SMALL
GASTEIGER

@<TRIPOS>ATOM
      1 C           4.5981    1.2500    0.0000 C.3     1  UNL1       -0.0073
      2 C           3.7320    0.7500    0.0000 C.3     1  UNL1       -0.0079
      3 C           5.4641    0.7500    0.0000 C.3     1  UNL1       -0.0399
      4 C           3.7320   -0.2500    0.0000 C.3     1  UNL1       -0.0242
      5 C           5.4641   -0.2500    0.0000 C.3     1  UNL1       -0.0307
      6 C           4.5981   -0.7500    0.0000 C.2     1  UNL1       -0.0702
      7 C           4.0981    2.1160    0.0000 C.3     1  UNL1       -0.0555
      8 C           2.8660    1.2500    0.0000 C.2     1  UNL1       -0.0755
      9 C           5.0981    2.1160    0.0000 C.2     1  UNL1       -0.0846
     10 C           4.5981   -1.7500    0.0000 C.2     1  UNL1       -0.0764
     11 C           2.0000    0.7500    0.0000 C.3     1  UNL1       -0.0437
     12 C           2.8660    2.2500    0.0000 C.2     1  UNL1       -0.0994
     13 C           6.0981    2.1160    0.0000 C.2     1  UNL1       -0.1021
     14 C           5.4641   -2.2500    0.0000 C.3     1  UNL1       -0.0438
     15 C           3.7320   -2.2500    0.0000 C.3     1  UNL1       -0.0438
     16 H           3.7320    1.3700    0.0000 H       1  UNL1        0.0357
     17 H           6.0747    0.6423    0.0000 H       1  UNL1        0.0277
     18 H           5.6762    1.3326    0.0000 H       1  UNL1        0.0277
     19 H           3.1215   -0.1423    0.0000 H       1  UNL1        0.0316
     20 H           3.5200   -0.8326    0.0000 H       1  UNL1        0.0316
     21 H           5.6762   -0.8326    0.0000 H       1  UNL1        0.0310
     22 H           6.0747   -0.1423    0.0000 H       1  UNL1        0.0310
     23 H           4.6350    2.4260    0.0000 H       1  UNL1        0.0238
     24 H           3.7881    2.6530    0.0000 H       1  UNL1        0.0238
     25 H           3.5611    1.8060    0.0000 H       1  UNL1        0.0238
     26 H           4.7881    2.6530    0.0000 H       1  UNL1        0.0572
     27 H           1.6900    1.2869    0.0000 H       1  UNL1        0.0274
     28 H           1.4631    0.4400    0.0000 H       1  UNL1        0.0274
     29 H           2.3100    0.2131    0.0000 H       1  UNL1        0.0274
     30 H           3.4030    2.5600    0.0000 H       1  UNL1        0.0534
     31 H           2.3291    2.5600    0.0000 H       1  UNL1        0.0534
     32 H           6.4081    1.5791    0.0000 H       1  UNL1        0.0532
     33 H           6.4081    2.6530    0.0000 H       1  UNL1        0.0532
     34 H           5.1541   -2.7869    0.0000 H       1  UNL1        0.0274
     35 H           6.0010   -2.5600    0.0000 H       1  UNL1        0.0274
     36 H           5.7741   -1.7131    0.0000 H       1  UNL1        0.0274
     37 H           3.4220   -1.7131    0.0000 H       1  UNL1        0.0274
     38 H           3.1951   -2.5600    0.0000 H       1  UNL1        0.0274
     39 H           4.0420   -2.7869    0.0000 H       1  UNL1        0.0274
@<TRIPOS>BOND
     1     1     2    1
     2     1     3    1
     3     1     7    1
     4     1     9    1
     5     2     4    1
     6     2     8    1
     7     2    16    1
     8     3     5    1
     9     3    17    1
    10     3    18    1
    11     4     6    1
    12     4    19    1
    13     4    20    1
    14     5     6    1
    15     5    21    1
    16     5    22    1
    17     6    10    2
    18     7    23    1
    19     7    24    1
    20     7    25    1
    21     8    11    1
    22     8    12    2
    23     9    13    2
    24     9    26    1
    25    10    14    1
    26    10    15    1
    27    11    27    1
    28    11    28    1
    29    11    29    1
    30    12    30    1
    31    12    31    1
    32    13    32    1
    33    13    33    1
    34    14    34    1
    35    14    35    1
    36    14    36    1
    37    15    37    1
    38    15    38    1
    39    15    39    1
