@<TRIPOS>MOLECULE
IMPHY009025
 115 121 0 0 0
SMALL
GASTEIGER

@<TRIPOS>ATOM
      1 O          13.7953   -1.6837    0.0000 O.3     1  UNL1       -0.3313
      2 O          10.3312   -2.6837    0.0000 O.3     1  UNL1       -0.3420
      3 O          12.0632   -2.6837    0.0000 O.3     1  UNL1       -0.3460
      4 O          12.0632    0.3163    0.0000 O.3     1  UNL1       -0.3865
      5 O          15.5273   -1.6837    0.0000 O.3     1  UNL1       -0.4515
      6 O           8.5991   -4.6837    0.0000 O.3     1  UNL1       -0.4529
      7 O          13.7953    1.3163    0.0000 O.3     1  UNL1       -0.3864
      8 O          10.3312   -5.6837    0.0000 O.3     1  UNL1       -0.3853
      9 O          12.0632   -4.6837    0.0000 O.3     1  UNL1       -0.3841
     10 O          15.5273    0.3163    0.0000 O.3     1  UNL1       -0.3829
     11 O          17.2202    3.3577    0.0000 O.3     1  UNL1       -0.3313
     12 O          16.3716    1.8478    0.0000 O.3     1  UNL1       -0.4598
     13 O          14.6049    4.8275    0.0000 O.3     1  UNL1       -0.3864
     14 O          16.3253    5.8475    0.0000 O.3     1  UNL1       -0.3865
     15 O          14.6281    2.8277    0.0000 O.3     1  UNL1       -0.3829
     16 O          18.1254   -1.1837    0.0000 O.2     1  UNL1       -0.1997
     17 O          18.0572    5.8675    0.0000 O.3     1  UNL1       -0.3924
     18 O           7.7331   -3.1837    0.0000 O.2     1  UNL1       -0.2456
     19 O          19.9114    1.8614    0.0000 O.3     1  UNL1       -0.5063
     20 O          15.5273   -4.6837    0.0000 O.3     1  UNL1       -0.4913
     21 O          18.9914   -4.6837    0.0000 O.3     1  UNL1       -0.5032
     22 O          17.2594   -5.6837    0.0000 O.3     1  UNL1       -0.5009
     23 O           2.5369   -6.1837    0.0000 O.3     1  UNL1       -0.5068
     24 C          12.9292   -1.1837    0.0000 C.3     1  UNL1        0.1144
     25 C          12.9292   -0.1837    0.0000 C.3     1  UNL1        0.1120
     26 C          13.7953    0.3163    0.0000 C.3     1  UNL1        0.1152
     27 C          10.3312   -4.6837    0.0000 C.3     1  UNL1        0.1250
     28 C          11.1972   -4.1837    0.0000 C.3     1  UNL1        0.1352
     29 C           9.4651   -4.1837    0.0000 C.3     1  UNL1        0.1574
     30 C          11.1972   -3.1837    0.0000 C.3     1  UNL1        0.1880
     31 C          14.6613   -0.1837    0.0000 C.3     1  UNL1        0.1454
     32 C           9.4651   -3.1837    0.0000 C.3     1  UNL1        0.0984
     33 C          14.6613   -1.1837    0.0000 C.3     1  UNL1        0.2312
     34 C          12.0632   -1.6837    0.0000 C.3     1  UNL1        0.0796
     35 C          15.4767    4.3376    0.0000 C.3     1  UNL1        0.1152
     36 C          16.3369    4.8476    0.0000 C.3     1  UNL1        0.1120
     37 C           8.5991   -2.6837    0.0000 C.3     1  UNL1       -0.0350
     38 C          15.4882    3.3376    0.0000 C.3     1  UNL1        0.1454
     39 C          17.2086    4.3576    0.0000 C.3     1  UNL1        0.1140
     40 C          16.3600    2.8477    0.0000 C.3     1  UNL1        0.2308
     41 C          18.0688    4.8676    0.0000 C.3     1  UNL1        0.0731
     42 C          16.3933   -1.1837    0.0000 C.ar    1  UNL1        0.2288
     43 C          17.2594    0.3163    0.0000 C.ar    1  UNL1        0.1245
     44 C          17.2433    1.3578    0.0000 C.ar    1  UNL1        0.1437
     45 C          16.3933   -0.1837    0.0000 C.ar    1  UNL1        0.0093
     46 C           7.7331   -4.1837    0.0000 C.2     1  UNL1        0.3324
     47 C          17.2594   -1.6837    0.0000 C.ar    1  UNL1        0.4047
     48 C          18.1254   -0.1837    0.0000 C.ar    1  UNL1        0.3708
     49 C          18.1413    1.8856    0.0000 C.ar    1  UNL1        0.0229
     50 C          17.2594   -2.6837    0.0000 C.ar    1  UNL1        0.0899
     51 C          19.0354    0.3231    0.0000 C.ar    1  UNL1        0.0847
     52 C           6.8671   -4.6837    0.0000 C.2     1  UNL1        0.0231
     53 C          19.0434    1.3647    0.0000 C.ar    1  UNL1        0.1293
     54 C          16.3933   -3.1837    0.0000 C.ar    1  UNL1        0.0002
     55 C          18.1254   -3.1837    0.0000 C.ar    1  UNL1       -0.0000
     56 C           6.0010   -4.1837    0.0000 C.2     1  UNL1       -0.0478
     57 C          16.3933   -4.1837    0.0000 C.ar    1  UNL1        0.1658
     58 C          18.1254   -4.1837    0.0000 C.ar    1  UNL1        0.1628
     59 C          17.2594   -4.6837    0.0000 C.ar    1  UNL1        0.2008
     60 C           5.1350   -4.6837    0.0000 C.ar    1  UNL1       -0.0246
     61 C           4.2690   -4.1837    0.0000 C.ar    1  UNL1       -0.0511
     62 C           5.1350   -5.6837    0.0000 C.ar    1  UNL1       -0.0511
     63 C           3.4030   -4.6837    0.0000 C.ar    1  UNL1       -0.0196
     64 C           4.2690   -6.1837    0.0000 C.ar    1  UNL1       -0.0196
     65 C          15.5273   -5.6837    0.0000 C.3     1  UNL1        0.0790
     66 C           3.4030   -5.6837    0.0000 C.ar    1  UNL1        0.1169
     67 H          12.9292   -1.8037    0.0000 H       1  UNL1        0.0647
     68 H          12.3923   -0.4937    0.0000 H       1  UNL1        0.0647
     69 H          14.3322    0.6263    0.0000 H       1  UNL1        0.0648
     70 H           9.7942   -4.9937    0.0000 H       1  UNL1        0.0659
     71 H          11.7341   -3.8737    0.0000 H       1  UNL1        0.0671
     72 H           8.9282   -3.8737    0.0000 H       1  UNL1        0.0787
     73 H          11.1972   -2.5637    0.0000 H       1  UNL1        0.0937
     74 H          15.1982   -0.4937    0.0000 H       1  UNL1        0.0683
     75 H           9.4651   -2.5637    0.0000 H       1  UNL1        0.0632
     76 H          14.6613   -1.8037    0.0000 H       1  UNL1        0.1084
     77 H          11.8512   -1.1011    0.0000 H       1  UNL1        0.0587
     78 H          11.4526   -1.7914    0.0000 H       1  UNL1        0.0587
     79 H          14.9434    4.0214    0.0000 H       1  UNL1        0.0648
     80 H          16.8702    5.1637    0.0000 H       1  UNL1        0.0647
     81 H           8.9091   -2.1468    0.0000 H       1  UNL1        0.0256
     82 H           8.0622   -2.3737    0.0000 H       1  UNL1        0.0256
     83 H           8.2891   -3.2206    0.0000 H       1  UNL1        0.0256
     84 H          15.4954    2.7177    0.0000 H       1  UNL1        0.0683
     85 H          17.7491    4.0538    0.0000 H       1  UNL1        0.0647
     86 H          16.9005    2.5439    0.0000 H       1  UNL1        0.1084
     87 H          11.5263    0.0063    0.0000 H       1  UNL1        0.2100
     88 H          13.2583    1.6263    0.0000 H       1  UNL1        0.2100
     89 H          10.8681   -5.9937    0.0000 H       1  UNL1        0.2101
     90 H          12.6002   -4.3737    0.0000 H       1  UNL1        0.2101
     91 H          15.5273    0.9363    0.0000 H       1  UNL1        0.2102
     92 H          18.2876    4.2875    0.0000 H       1  UNL1        0.0584
     93 H          18.6781    4.9823    0.0000 H       1  UNL1        0.0584
     94 H          15.8564    0.1263    0.0000 H       1  UNL1        0.0667
     95 H          14.5978    5.4475    0.0000 H       1  UNL1        0.2100
     96 H          15.7848    6.1513    0.0000 H       1  UNL1        0.2100
     97 H          14.0876    3.1314    0.0000 H       1  UNL1        0.2102
     98 H          18.1390    2.5056    0.0000 H       1  UNL1        0.0691
     99 H          18.5906    6.1837    0.0000 H       1  UNL1        0.2095
    100 H          19.5687    0.0070    0.0000 H       1  UNL1        0.0749
    101 H           6.8671   -5.3037    0.0000 H       1  UNL1        0.0689
    102 H          15.8564   -2.8737    0.0000 H       1  UNL1        0.0664
    103 H          18.6623   -2.8737    0.0000 H       1  UNL1        0.0664
    104 H           6.0010   -3.5637    0.0000 H       1  UNL1        0.0626
    105 H          20.4471    1.5493    0.0000 H       1  UNL1        0.2921
    106 H           4.2690   -3.5637    0.0000 H       1  UNL1        0.0625
    107 H           5.6720   -5.9937    0.0000 H       1  UNL1        0.0625
    108 H          19.5284   -4.3737    0.0000 H       1  UNL1        0.2923
    109 H          17.7963   -5.9937    0.0000 H       1  UNL1        0.2924
    110 H           2.8660   -4.3737    0.0000 H       1  UNL1        0.0654
    111 H           4.2690   -6.8037    0.0000 H       1  UNL1        0.0654
    112 H          14.9073   -5.6837    0.0000 H       1  UNL1        0.0660
    113 H          15.5273   -6.3037    0.0000 H       1  UNL1        0.0660
    114 H          16.1473   -5.6837    0.0000 H       1  UNL1        0.0660
    115 H           2.0000   -5.8737    0.0000 H       1  UNL1        0.2921
@<TRIPOS>UNITY_ATOM_ATTR
16 1
charge 1
@<TRIPOS>BOND
     1     1    24    1
     2     1    33    1
     3     2    30    1
     4     2    32    1
     5    30     3    1
     6     3    34    1
     7    25     4    1
     8     4    87    1
     9    33     5    1
    10     5    42    1
    11    29     6    1
    12     6    46    1
    13     7    26    1
    14     7    88    1
    15    27     8    1
    16     8    89    1
    17     9    28    1
    18     9    90    1
    19    10    31    1
    20    10    91    1
    21    11    39    1
    22    11    40    1
    23    40    12    1
    24    12    44    1
    25    35    13    1
    26    13    95    1
    27    36    14    1
    28    14    96    1
    29    15    38    1
    30    15    97    1
    31    16    47   ar
    32    16    48   ar
    33    17    41    1
    34    17    99    1
    35    18    46    2
    36    19    53    1
    37    19   105    1
    38    20    57    1
    39    20    65    1
    40    21    58    1
    41    21   108    1
    42    22    59    1
    43    22   109    1
    44    23    66    1
    45    23   115    1
    46    24    25    1
    47    24    34    1
    48    24    67    1
    49    25    26    1
    50    25    68    1
    51    26    31    1
    52    26    69    1
    53    27    28    1
    54    27    29    1
    55    27    70    1
    56    28    30    1
    57    28    71    1
    58    29    32    1
    59    29    72    1
    60    30    73    1
    61    31    33    1
    62    31    74    1
    63    32    37    1
    64    32    75    1
    65    33    76    1
    66    34    77    1
    67    34    78    1
    68    35    36    1
    69    35    38    1
    70    35    79    1
    71    36    39    1
    72    36    80    1
    73    37    81    1
    74    37    82    1
    75    37    83    1
    76    38    40    1
    77    38    84    1
    78    39    41    1
    79    39    85    1
    80    40    86    1
    81    41    92    1
    82    41    93    1
    83    42    45   ar
    84    42    47   ar
    85    43    44   ar
    86    43    45   ar
    87    43    48   ar
    88    44    49   ar
    89    45    94    1
    90    46    52    1
    91    47    50    1
    92    48    51   ar
    93    49    53   ar
    94    49    98    1
    95    50    54   ar
    96    50    55   ar
    97    51    53   ar
    98    51   100    1
    99    52    56    2
   100    52   101    1
   101    54    57   ar
   102    54   102    1
   103    55    58   ar
   104    55   103    1
   105    56    60    1
   106    56   104    1
   107    57    59   ar
   108    58    59   ar
   109    60    61   ar
   110    60    62   ar
   111    61    63   ar
   112    61   106    1
   113    62    64   ar
   114    62   107    1
   115    63    66   ar
   116    63   110    1
   117    64    66   ar
   118    64   111    1
   119    65   112    1
   120    65   113    1
   121    65   114    1
