@<TRIPOS>MOLECULE
IMPHY007941
 54 56 0 0 0
SMALL
GASTEIGER

@<TRIPOS>ATOM
      1 O           4.2176    0.3456    0.0000 O.3     1  UNL1       -0.3429
      2 O           3.7127   -0.1811    0.0000 O.3     1  UNL1       -0.4518
      3 O           6.2527   -0.6699    0.0000 O.3     1  UNL1       -0.4577
      4 O           2.0000   -0.1699    0.0000 O.2     1  UNL1       -0.2505
      5 O           5.6649   -3.1024    0.0000 O.3     1  UNL1       -0.3737
      6 O           7.1188   -2.1476    0.0000 O.2     1  UNL1       -0.2472
      7 N           4.5594    2.2630    0.0000 N.4     1  UNL1        0.2738
      8 C           4.5594    1.2854    0.0000 C.3     1  UNL1        0.1582
      9 C           3.7127    0.7966    0.0000 C.3     1  UNL1        0.1831
     10 C           3.5395    2.5075    0.0000 C.3     1  UNL1       -0.0229
     11 C           3.0181    1.7253    0.0000 C.3     1  UNL1        0.0334
     12 C           5.4949    2.5292    0.0000 C.3     1  UNL1       -0.0074
     13 C           5.4061    0.7966    0.0000 C.2     1  UNL1        0.0510
     14 C           4.5384    3.2628    0.0000 C.3     1  UNL1       -0.0376
     15 C           6.1032    1.7253    0.0000 C.2     1  UNL1       -0.0286
     16 C           5.4061   -0.1811    0.0000 C.3     1  UNL1        0.1218
     17 C           2.8660   -0.6699    0.0000 C.2     1  UNL1        0.3111
     18 C           2.8660   -1.6476    0.0000 C.3     1  UNL1        0.0600
     19 C           3.7127   -2.1364    0.0000 C.3     1  UNL1       -0.0159
     20 C           2.0000   -2.1476    0.0000 C.3     1  UNL1       -0.0427
     21 C           6.2527   -1.6476    0.0000 C.2     1  UNL1        0.3434
     22 C           5.4061   -2.1364    0.0000 C.3     1  UNL1        0.1803
     23 C           4.5594   -1.6476    0.0000 C.2     1  UNL1       -0.0343
     24 C           2.0000   -3.1476    0.0000 C.3     1  UNL1       -0.0645
     25 C           4.6990   -2.8436    0.0000 C.3     1  UNL1       -0.0216
     26 C           4.5594   -0.6476    0.0000 C.2     1  UNL1       -0.0962
     27 H           2.9061    0.5283    0.0000 H       1  UNL1        0.0828
     28 H           3.7538    3.0893    0.0000 H       1  UNL1        0.0817
     29 H           2.9869    2.7885    0.0000 H       1  UNL1        0.0817
     30 H           2.5446    2.1255    0.0000 H       1  UNL1        0.0356
     31 H           2.5669    1.3002    0.0000 H       1  UNL1        0.0356
     32 H           6.0316    2.8395    0.0000 H       1  UNL1        0.0863
     33 H           5.2530    3.1000    0.0000 H       1  UNL1        0.0863
     34 H           5.1583    3.2758    0.0000 H       1  UNL1        0.0779
     35 H           4.5254    3.8827    0.0000 H       1  UNL1        0.0779
     36 H           3.9186    3.2498    0.0000 H       1  UNL1        0.0779
     37 H           6.7232    1.7266    0.0000 H       1  UNL1        0.0628
     38 H           4.8000    0.1336    0.0000 H       1  UNL1        0.2162
     39 H           4.7955   -0.0734    0.0000 H       1  UNL1        0.0748
     40 H           5.1940   -0.7637    0.0000 H       1  UNL1        0.0748
     41 H           2.1299   -1.2226    0.0000 H       1  UNL1        0.0416
     42 H           3.3141   -2.6114    0.0000 H       1  UNL1        0.0319
     43 H           4.1112   -2.6114    0.0000 H       1  UNL1        0.0319
     44 H           1.7879   -1.5650    0.0000 H       1  UNL1        0.0271
     45 H           1.3894   -2.2553    0.0000 H       1  UNL1        0.0271
     46 H           1.3800   -3.1476    0.0000 H       1  UNL1        0.0230
     47 H           2.0000   -3.7676    0.0000 H       1  UNL1        0.0230
     48 H           2.6200   -3.1476    0.0000 H       1  UNL1        0.0230
     49 H           4.2606   -2.4052    0.0000 H       1  UNL1        0.0266
     50 H           4.2607   -3.2820    0.0000 H       1  UNL1        0.0266
     51 H           5.1375   -3.2820    0.0000 H       1  UNL1        0.0266
     52 H           5.0964   -0.3376    0.0000 H       1  UNL1        0.0535
     53 H           4.0225   -0.3376    0.0000 H       1  UNL1        0.0535
     54 H           6.2638   -3.2628    0.0000 H       1  UNL1        0.2113
@<TRIPOS>UNITY_ATOM_ATTR
7 1
charge 1
@<TRIPOS>BOND
     1     1     8    1
     2     1    38    1
     3     2     9    1
     4     2    17    1
     5     3    16    1
     6     3    21    1
     7     4    17    2
     8     5    22    1
     9     5    54    1
    10     6    21    2
    11     7     8    1
    12     7    10    1
    13     7    12    1
    14     7    14    1
    15     8     9    1
    16     8    13    1
    17     9    11    1
    18     9    27    1
    19    10    11    1
    20    10    28    1
    21    10    29    1
    22    11    30    1
    23    11    31    1
    24    12    15    1
    25    12    32    1
    26    12    33    1
    27    13    15    2
    28    13    16    1
    29    14    34    1
    30    14    35    1
    31    14    36    1
    32    15    37    1
    33    16    39    1
    34    16    40    1
    35    17    18    1
    36    18    19    1
    37    18    20    1
    38    18    41    1
    39    19    23    1
    40    19    42    1
    41    19    43    1
    42    20    24    1
    43    20    44    1
    44    20    45    1
    45    21    22    1
    46    22    23    1
    47    22    25    1
    48    23    26    2
    49    24    46    1
    50    24    47    1
    51    24    48    1
    52    25    49    1
    53    25    50    1
    54    25    51    1
    55    26    52    1
    56    26    53    1
