@<TRIPOS>MOLECULE
IMPHY012497
 60 63 0 0 0
SMALL
GASTEIGER

@<TRIPOS>ATOM
      1 O           8.1060   -1.2500    0.0000 O.3     1  UNL1       -0.4937
      2 O           6.3740    1.7500    0.0000 O.3     1  UNL1       -0.4944
      3 O           3.7759   -1.7500    0.0000 O.3     1  UNL1       -0.4944
      4 O           2.8718   -0.2531    0.0000 O.3     1  UNL1       -0.4944
      5 N          10.7721    0.2292    0.0000 N.2     1  UNL1       -0.2844
      6 C           8.9721    1.2500    0.0000 C.ar    1  UNL1       -0.0295
      7 C           9.8660    1.7847    0.0000 C.3     1  UNL1       -0.0046
      8 C           8.9721    0.2500    0.0000 C.ar    1  UNL1        0.0413
      9 C          10.7721    1.2708    0.0000 C.3     1  UNL1        0.0523
     10 C           7.2400    0.2500    0.0000 C.ar    1  UNL1        0.0668
     11 C           8.1060   -0.2500    0.0000 C.ar    1  UNL1        0.1404
     12 C           6.3740   -0.2500    0.0000 C.ar    1  UNL1        0.0001
     13 C           9.8660   -0.2847    0.0000 C.2     1  UNL1        0.0440
     14 C           8.1060    1.7500    0.0000 C.ar    1  UNL1       -0.0153
     15 C           7.2400    1.2500    0.0000 C.ar    1  UNL1        0.1316
     16 C           5.5080    0.2500    0.0000 C.ar    1  UNL1       -0.0027
     17 C           6.3740   -1.2500    0.0000 C.ar    1  UNL1       -0.0385
     18 C          11.6362    1.7742    0.0000 C.3     1  UNL1       -0.0424
     19 C           4.6419   -0.2500    0.0000 C.ar    1  UNL1        0.0659
     20 C           9.8544   -1.2846    0.0000 C.3     1  UNL1       -0.0221
     21 C           4.6419   -1.2500    0.0000 C.ar    1  UNL1        0.1316
     22 C           5.5080   -1.7500    0.0000 C.ar    1  UNL1       -0.0157
     23 C           5.5240    1.2915    0.0000 C.ar    1  UNL1       -0.0531
     24 C           3.7319    0.2568    0.0000 C.ar    1  UNL1        0.1313
     25 C           7.2400   -1.7500    0.0000 C.3     1  UNL1       -0.0390
     26 C           4.6260    1.8193    0.0000 C.ar    1  UNL1       -0.0577
     27 C           3.7239    1.2985    0.0000 C.ar    1  UNL1       -0.0192
     28 C           8.9721   -1.7500    0.0000 C.3     1  UNL1        0.0788
     29 C           6.3740    2.7500    0.0000 C.3     1  UNL1        0.0788
     30 C           3.7759   -2.7500    0.0000 C.3     1  UNL1        0.0788
     31 C           2.0000    0.2368    0.0000 C.3     1  UNL1        0.0788
     32 H          10.2596    2.2637    0.0000 H       1  UNL1        0.0334
     33 H           9.4614    2.2544    0.0000 H       1  UNL1        0.0334
     34 H          11.3096    0.9619    0.0000 H       1  UNL1        0.0545
     35 H           8.1060    2.3700    0.0000 H       1  UNL1        0.0657
     36 H          11.9482    1.2384    0.0000 H       1  UNL1        0.0250
     37 H          12.1719    2.0862    0.0000 H       1  UNL1        0.0250
     38 H          11.3241    2.3099    0.0000 H       1  UNL1        0.0250
     39 H           9.2345   -1.2774    0.0000 H       1  UNL1        0.0293
     40 H           9.8473   -1.9046    0.0000 H       1  UNL1        0.0293
     41 H          10.4744   -1.2918    0.0000 H       1  UNL1        0.0293
     42 H           5.5080   -2.3700    0.0000 H       1  UNL1        0.0657
     43 H           6.0645    1.5953    0.0000 H       1  UNL1        0.0624
     44 H           6.9300   -2.2869    0.0000 H       1  UNL1        0.0278
     45 H           7.7770   -2.0600    0.0000 H       1  UNL1        0.0278
     46 H           7.5500   -1.2131    0.0000 H       1  UNL1        0.0278
     47 H           4.6284    2.4393    0.0000 H       1  UNL1        0.0619
     48 H           3.1858    1.6064    0.0000 H       1  UNL1        0.0654
     49 H           8.6621   -2.2869    0.0000 H       1  UNL1        0.0660
     50 H           9.5090   -2.0600    0.0000 H       1  UNL1        0.0660
     51 H           9.2821   -1.2131    0.0000 H       1  UNL1        0.0660
     52 H           6.9940    2.7500    0.0000 H       1  UNL1        0.0660
     53 H           6.3740    3.3700    0.0000 H       1  UNL1        0.0660
     54 H           5.7540    2.7500    0.0000 H       1  UNL1        0.0660
     55 H           3.1559   -2.7500    0.0000 H       1  UNL1        0.0660
     56 H           3.7759   -3.3700    0.0000 H       1  UNL1        0.0660
     57 H           4.3959   -2.7500    0.0000 H       1  UNL1        0.0660
     58 H           2.3038    0.7773    0.0000 H       1  UNL1        0.0660
     59 H           1.4595    0.5406    0.0000 H       1  UNL1        0.0660
     60 H           1.6962   -0.3037    0.0000 H       1  UNL1        0.0660
@<TRIPOS>BOND
     1     1    11    1
     2     1    28    1
     3     2    15    1
     4     2    29    1
     5     3    21    1
     6     3    30    1
     7     4    24    1
     8     4    31    1
     9     5     9    1
    10     5    13    2
    11     6     7    1
    12     6     8   ar
    13     6    14   ar
    14     7     9    1
    15     7    32    1
    16     7    33    1
    17     8    11   ar
    18     8    13    1
    19     9    18    1
    20     9    34    1
    21    10    11   ar
    22    10    12    1
    23    10    15   ar
    24    12    16   ar
    25    12    17   ar
    26    13    20    1
    27    14    15   ar
    28    14    35    1
    29    16    19   ar
    30    16    23   ar
    31    17    22   ar
    32    17    25    1
    33    18    36    1
    34    18    37    1
    35    18    38    1
    36    19    21   ar
    37    19    24   ar
    38    20    39    1
    39    20    40    1
    40    20    41    1
    41    21    22   ar
    42    22    42    1
    43    23    26   ar
    44    23    43    1
    45    24    27   ar
    46    25    44    1
    47    25    45    1
    48    25    46    1
    49    26    27   ar
    50    26    47    1
    51    27    48    1
    52    28    49    1
    53    28    50    1
    54    28    51    1
    55    29    52    1
    56    29    53    1
    57    29    54    1
    58    30    55    1
    59    30    56    1
    60    30    57    1
    61    31    58    1
    62    31    59    1
    63    31    60    1
