@<TRIPOS>MOLECULE
IMPHY000821
 88 92 0 0 0
SMALL
GASTEIGER

@<TRIPOS>ATOM
      1 O          10.5680    0.9413    0.0000 O.2     1  UNL1       -0.2917
      2 O          14.2741   -2.1412    0.0000 O.3     1  UNL1       -0.5064
      3 O           9.8100   -2.8732    0.0000 O.3     1  UNL1       -0.5056
      4 O           9.8100    0.5909    0.0000 O.3     1  UNL1       -0.5064
      5 O          16.0062    0.8588    0.0000 O.3     1  UNL1       -0.5066
      6 O          11.9355    3.7100    0.0000 O.3     1  UNL1       -0.5063
      7 O          14.5892    1.4833    0.0000 O.3     1  UNL1       -0.5063
      8 O           8.3100   -3.7392    0.0000 O.2     1  UNL1       -0.2872
      9 O           5.3100   -5.4712    0.0000 O.3     1  UNL1       -0.5061
     10 O           2.3100   -3.7392    0.0000 O.3     1  UNL1       -0.5066
     11 C          11.6760   -0.6412    0.0000 C.3     1  UNL1        0.0398
     12 C          12.5421   -1.1412    0.0000 C.3     1  UNL1        0.0019
     13 C          10.8100   -1.1412    0.0000 C.3     1  UNL1        0.0198
     14 C          12.5421   -2.1412    0.0000 C.3     1  UNL1       -0.0244
     15 C          11.6760   -2.6412    0.0000 C.2     1  UNL1       -0.0753
     16 C          10.8100   -2.1412    0.0000 C.2     1  UNL1       -0.0767
     17 C          13.4081   -0.6412    0.0000 C.ar    1  UNL1       -0.0016
     18 C           9.8100   -1.1412    0.0000 C.ar    1  UNL1        0.0436
     19 C          11.3340    0.2985    0.0000 C.2     1  UNL1        0.1679
     20 C          11.6760   -3.6412    0.0000 C.3     1  UNL1       -0.0437
     21 C          11.9768    1.0646    0.0000 C.ar    1  UNL1        0.0246
     22 C          14.2741   -1.1412    0.0000 C.ar    1  UNL1        0.1238
     23 C           9.3100   -2.0071    0.0000 C.ar    1  UNL1        0.1348
     24 C          13.4081    0.3588    0.0000 C.ar    1  UNL1       -0.0514
     25 C           9.3100   -0.2751    0.0000 C.ar    1  UNL1        0.1241
     26 C           8.3100   -2.0072    0.0000 C.ar    1  UNL1        0.0635
     27 C          15.1401   -0.6412    0.0000 C.ar    1  UNL1        0.0216
     28 C          14.2741    0.8588    0.0000 C.ar    1  UNL1       -0.0197
     29 C           8.3100   -0.2751    0.0000 C.ar    1  UNL1       -0.0190
     30 C          12.9616    0.8909    0.0000 C.ar    1  UNL1       -0.0092
     31 C          11.6348    2.0043    0.0000 C.ar    1  UNL1       -0.0092
     32 C           7.8100   -1.1412    0.0000 C.ar    1  UNL1       -0.0440
     33 C          15.1401    0.3588    0.0000 C.ar    1  UNL1        0.1203
     34 C          12.2776    2.7703    0.0000 C.ar    1  UNL1        0.1245
     35 C          13.6044    1.6570    0.0000 C.ar    1  UNL1        0.1245
     36 C          13.2624    2.5967    0.0000 C.ar    1  UNL1        0.0391
     37 C           7.8100   -2.8731    0.0000 C.2     1  UNL1        0.1896
     38 C          13.9052    3.3627    0.0000 C.3     1  UNL1       -0.0023
     39 C           6.8100   -2.8732    0.0000 C.2     1  UNL1       -0.0136
     40 C          13.5631    4.3024    0.0000 C.2     1  UNL1       -0.0807
     41 C           6.3100   -3.7391    0.0000 C.2     1  UNL1       -0.0475
     42 C          14.2059    5.0685    0.0000 C.2     1  UNL1       -0.0793
     43 C           5.3100   -3.7392    0.0000 C.ar    1  UNL1        0.0168
     44 C          13.8639    6.0082    0.0000 C.3     1  UNL1       -0.0440
     45 C          15.1907    4.8948    0.0000 C.3     1  UNL1       -0.0440
     46 C           4.8100   -4.6052    0.0000 C.ar    1  UNL1        0.1274
     47 C           4.8100   -2.8732    0.0000 C.ar    1  UNL1       -0.0477
     48 C           3.8100   -4.6052    0.0000 C.ar    1  UNL1        0.0219
     49 C           3.8100   -2.8732    0.0000 C.ar    1  UNL1       -0.0194
     50 C           3.3100   -3.7392    0.0000 C.ar    1  UNL1        0.1204
     51 H          12.1510   -0.2426    0.0000 H       1  UNL1        0.0396
     52 H          12.5421   -0.2912    0.0000 H       1  UNL1        0.0360
     53 H          10.5900   -0.3201    0.0000 H       1  UNL1        0.0401
     54 H          12.7541   -2.7238    0.0000 H       1  UNL1        0.0316
     55 H          13.1526   -2.0335    0.0000 H       1  UNL1        0.0316
     56 H          10.2731   -2.4512    0.0000 H       1  UNL1        0.0578
     57 H          11.0560   -3.6412    0.0000 H       1  UNL1        0.0274
     58 H          11.6760   -4.2612    0.0000 H       1  UNL1        0.0274
     59 H          12.2960   -3.6412    0.0000 H       1  UNL1        0.0274
     60 H          12.8711    0.6688    0.0000 H       1  UNL1        0.0623
     61 H          15.6771   -0.9512    0.0000 H       1  UNL1        0.0691
     62 H          14.2741    1.4788    0.0000 H       1  UNL1        0.0654
     63 H           8.0000    0.2618    0.0000 H       1  UNL1        0.0654
     64 H          13.1737    0.3083    0.0000 H       1  UNL1        0.0661
     65 H          11.0242    2.1119    0.0000 H       1  UNL1        0.0661
     66 H           7.1900   -1.1412    0.0000 H       1  UNL1        0.0627
     67 H          14.8110   -2.4512    0.0000 H       1  UNL1        0.2921
     68 H           9.5000   -3.4101    0.0000 H       1  UNL1        0.2922
     69 H           9.5000    1.1278    0.0000 H       1  UNL1        0.2921
     70 H          14.3037    2.8878    0.0000 H       1  UNL1        0.0358
     71 H          14.4421    3.6727    0.0000 H       1  UNL1        0.0358
     72 H          16.5431    0.5488    0.0000 H       1  UNL1        0.2921
     73 H           6.5000   -2.3363    0.0000 H       1  UNL1        0.0656
     74 H          11.3250    3.8177    0.0000 H       1  UNL1        0.2921
     75 H          14.9877    1.9583    0.0000 H       1  UNL1        0.2921
     76 H          12.9526    4.4101    0.0000 H       1  UNL1        0.0575
     77 H           6.6200   -4.2761    0.0000 H       1  UNL1        0.0626
     78 H          14.4465    6.2202    0.0000 H       1  UNL1        0.0274
     79 H          13.6519    6.5908    0.0000 H       1  UNL1        0.0274
     80 H          13.2813    5.7961    0.0000 H       1  UNL1        0.0274
     81 H          15.0831    4.2842    0.0000 H       1  UNL1        0.0274
     82 H          15.8013    4.7871    0.0000 H       1  UNL1        0.0274
     83 H          15.2984    5.5054    0.0000 H       1  UNL1        0.0274
     84 H           5.1200   -2.3363    0.0000 H       1  UNL1        0.0626
     85 H           3.5000   -5.1422    0.0000 H       1  UNL1        0.0691
     86 H           3.5000   -2.3363    0.0000 H       1  UNL1        0.0654
     87 H           5.0000   -6.0082    0.0000 H       1  UNL1        0.2922
     88 H           2.0000   -3.2023    0.0000 H       1  UNL1        0.2921
@<TRIPOS>BOND
     1     1    19    2
     2     2    22    1
     3     2    67    1
     4     3    23    1
     5     3    68    1
     6     4    25    1
     7     4    69    1
     8     5    33    1
     9     5    72    1
    10     6    34    1
    11     6    74    1
    12     7    35    1
    13     7    75    1
    14     8    37    2
    15     9    46    1
    16     9    87    1
    17    10    50    1
    18    10    88    1
    19    11    12    1
    20    11    13    1
    21    11    19    1
    22    11    51    1
    23    12    14    1
    24    12    17    1
    25    12    52    1
    26    13    16    1
    27    13    18    1
    28    13    53    1
    29    14    15    1
    30    14    54    1
    31    14    55    1
    32    15    16    2
    33    15    20    1
    34    16    56    1
    35    17    22   ar
    36    17    24   ar
    37    18    23   ar
    38    18    25   ar
    39    19    21    1
    40    20    57    1
    41    20    58    1
    42    20    59    1
    43    21    30   ar
    44    21    31   ar
    45    22    27   ar
    46    23    26   ar
    47    24    28   ar
    48    24    60    1
    49    25    29   ar
    50    26    32   ar
    51    26    37    1
    52    27    33   ar
    53    27    61    1
    54    28    33   ar
    55    28    62    1
    56    29    32   ar
    57    29    63    1
    58    30    35   ar
    59    30    64    1
    60    31    34   ar
    61    31    65    1
    62    32    66    1
    63    34    36   ar
    64    35    36   ar
    65    36    38    1
    66    37    39    1
    67    38    40    1
    68    38    70    1
    69    38    71    1
    70    39    41    2
    71    39    73    1
    72    40    42    2
    73    40    76    1
    74    41    43    1
    75    41    77    1
    76    42    44    1
    77    42    45    1
    78    43    46   ar
    79    43    47   ar
    80    44    78    1
    81    44    79    1
    82    44    80    1
    83    45    81    1
    84    45    82    1
    85    45    83    1
    86    46    48   ar
    87    47    49   ar
    88    47    84    1
    89    48    50   ar
    90    48    85    1
    91    49    50   ar
    92    49    86    1
