@<TRIPOS>MOLECULE
IMPHY008881
 38 40 0 0 0
SMALL
GASTEIGER

@<TRIPOS>ATOM
      1 O           7.2622   -0.6154    0.0000 O.2     1  UNL1       -0.4507
      2 O           5.5138    2.4192    0.0000 O.3     1  UNL1       -0.5055
      3 O           2.8641    0.9121    0.0000 O.3     1  UNL1       -0.3782
      4 O           3.7320   -0.6395    0.0000 O.3     1  UNL1       -0.5062
      5 O           8.9942    1.3846    0.0000 O.3     1  UNL1       -0.5007
      6 O           7.2622    2.3846    0.0000 O.2     1  UNL1       -0.2830
      7 O          11.5923   -2.1154    0.0000 O.3     1  UNL1       -0.5068
      8 C           6.3961    0.8846    0.0000 C.ar    1  UNL1        0.1095
      9 C           6.3961   -0.1154    0.0000 C.ar    1  UNL1        0.1466
     10 C           4.5961    0.9054    0.0000 C.ar    1  UNL1        0.0617
     11 C           5.5022    1.4193    0.0000 C.ar    1  UNL1        0.1402
     12 C           8.1282   -0.1154    0.0000 C.ar    1  UNL1        0.1806
     13 C           4.5961   -0.1362    0.0000 C.ar    1  UNL1        0.1292
     14 C           7.2622    1.3846    0.0000 C.ar    1  UNL1        0.2379
     15 C           5.5022   -0.6501    0.0000 C.ar    1  UNL1        0.0235
     16 C           8.1282    0.8846    0.0000 C.ar    1  UNL1        0.2082
     17 C           3.7320    1.4088    0.0000 C.3     1  UNL1        0.0792
     18 C           8.9942   -0.6154    0.0000 C.ar    1  UNL1        0.0213
     19 C           9.8602   -0.1154    0.0000 C.ar    1  UNL1       -0.0475
     20 C           8.9942   -1.6154    0.0000 C.ar    1  UNL1       -0.0475
     21 C          10.7263   -0.6154    0.0000 C.ar    1  UNL1       -0.0195
     22 C           9.8602   -2.1154    0.0000 C.ar    1  UNL1       -0.0195
     23 C          10.7263   -1.6154    0.0000 C.ar    1  UNL1        0.1169
     24 C           2.0000    1.4154    0.0000 C.3     1  UNL1        0.0369
     25 H           5.5094   -1.2700    0.0000 H       1  UNL1        0.0691
     26 H           4.1324    1.8822    0.0000 H       1  UNL1        0.0612
     27 H           3.3353    1.8852    0.0000 H       1  UNL1        0.0612
     28 H           9.8602    0.5046    0.0000 H       1  UNL1        0.0626
     29 H           8.4573   -1.9254    0.0000 H       1  UNL1        0.0626
     30 H           4.9804    2.7354    0.0000 H       1  UNL1        0.2922
     31 H          11.2632   -0.3054    0.0000 H       1  UNL1        0.0654
     32 H           9.8602   -2.7354    0.0000 H       1  UNL1        0.0654
     33 H           3.7344   -1.2595    0.0000 H       1  UNL1        0.2922
     34 H           8.9942    2.0046    0.0000 H       1  UNL1        0.2924
     35 H           2.3121    1.9512    0.0000 H       1  UNL1        0.0524
     36 H           1.4643    1.7275    0.0000 H       1  UNL1        0.0524
     37 H           1.6879    0.8797    0.0000 H       1  UNL1        0.0524
     38 H          11.5923   -2.7354    0.0000 H       1  UNL1        0.2921
@<TRIPOS>BOND
     1     1     9   ar
     2     1    12   ar
     3     2    11    1
     4     2    30    1
     5     3    17    1
     6     3    24    1
     7     4    13    1
     8     4    33    1
     9     5    16    1
    10     5    34    1
    11     6    14    2
    12     7    23    1
    13     7    38    1
    14     8     9   ar
    15     8    11   ar
    16     8    14   ar
    17     9    15   ar
    18    10    11   ar
    19    10    13   ar
    20    10    17    1
    21    12    16   ar
    22    12    18    1
    23    13    15   ar
    24    14    16   ar
    25    15    25    1
    26    17    26    1
    27    17    27    1
    28    18    19   ar
    29    18    20   ar
    30    19    21   ar
    31    19    28    1
    32    20    22   ar
    33    20    29    1
    34    21    23   ar
    35    21    31    1
    36    22    23   ar
    37    22    32    1
    38    24    35    1
    39    24    36    1
    40    24    37    1
