@<TRIPOS>MOLECULE
IMPHY002756
 37 39 0 0 0
SMALL
GASTEIGER

@<TRIPOS>ATOM
      1 O           4.5929    1.0232    0.0000 O.3     1  UNL1       -0.3578
      2 O           2.5896    0.4322    0.0000 O.3     1  UNL1       -0.3921
      3 O           7.9440    4.2593    0.0000 O.3     1  UNL1       -0.5068
      4 O           5.0929   -4.5156    0.0000 O.3     1  UNL1       -0.5068
      5 C           4.2839    0.0721    0.0000 C.3     1  UNL1        0.1081
      6 C           5.5929    1.0232    0.0000 C.3     1  UNL1        0.1033
      7 C           5.0929   -0.5157    0.0000 C.2     1  UNL1       -0.0107
      8 C           5.9019    0.0721    0.0000 C.2     1  UNL1       -0.0449
      9 C           6.1807    1.8322    0.0000 C.ar    1  UNL1       -0.0148
     10 C           3.3328   -0.2369    0.0000 C.3     1  UNL1        0.0746
     11 C           5.0929   -1.5156    0.0000 C.ar    1  UNL1       -0.0193
     12 C           7.1752    1.7277    0.0000 C.ar    1  UNL1       -0.0524
     13 C           5.7739    2.7458    0.0000 C.ar    1  UNL1       -0.0524
     14 C           4.2268   -2.0156    0.0000 C.ar    1  UNL1       -0.0508
     15 C           5.9589   -2.0156    0.0000 C.ar    1  UNL1       -0.0508
     16 C           7.7630    2.5367    0.0000 C.ar    1  UNL1       -0.0198
     17 C           6.3617    3.5548    0.0000 C.ar    1  UNL1       -0.0198
     18 C           4.2268   -3.0156    0.0000 C.ar    1  UNL1       -0.0196
     19 C           5.9589   -3.0156    0.0000 C.ar    1  UNL1       -0.0196
     20 C           7.3562    3.4502    0.0000 C.ar    1  UNL1        0.1169
     21 C           5.0929   -3.5156    0.0000 C.ar    1  UNL1        0.1169
     22 H           3.8454    0.5105    0.0000 H       1  UNL1        0.0670
     23 H           6.2052    0.9262    0.0000 H       1  UNL1        0.0691
     24 H           6.4916   -0.1195    0.0000 H       1  UNL1        0.0605
     25 H           2.8442   -0.6186    0.0000 H       1  UNL1        0.0586
     26 H           3.6239   -0.7843    0.0000 H       1  UNL1        0.0586
     27 H           7.4274    1.1613    0.0000 H       1  UNL1        0.0622
     28 H           5.1573    2.8106    0.0000 H       1  UNL1        0.0622
     29 H           3.6899   -1.7056    0.0000 H       1  UNL1        0.0625
     30 H           6.4958   -1.7056    0.0000 H       1  UNL1        0.0625
     31 H           8.3796    2.4719    0.0000 H       1  UNL1        0.0654
     32 H           6.1095    4.1212    0.0000 H       1  UNL1        0.0654
     33 H           3.6899   -3.3256    0.0000 H       1  UNL1        0.0654
     34 H           6.4958   -3.3256    0.0000 H       1  UNL1        0.0654
     35 H           2.0000    0.2407    0.0000 H       1  UNL1        0.2095
     36 H           7.6918    4.8257    0.0000 H       1  UNL1        0.2921
     37 H           4.5559   -4.8257    0.0000 H       1  UNL1        0.2921
@<TRIPOS>BOND
     1     1     5    1
     2     1     6    1
     3     2    10    1
     4     2    35    1
     5     3    20    1
     6     3    36    1
     7     4    21    1
     8     4    37    1
     9     5     7    1
    10     5    10    1
    11     5    22    1
    12     6     8    1
    13     6     9    1
    14     6    23    1
    15     7     8    2
    16     7    11    1
    17     8    24    1
    18     9    12   ar
    19     9    13   ar
    20    10    25    1
    21    10    26    1
    22    11    14   ar
    23    11    15   ar
    24    12    16   ar
    25    12    27    1
    26    13    17   ar
    27    13    28    1
    28    14    18   ar
    29    14    29    1
    30    15    19   ar
    31    15    30    1
    32    16    20   ar
    33    16    31    1
    34    17    20   ar
    35    17    32    1
    36    18    21   ar
    37    18    33    1
    38    19    21   ar
    39    19    34    1
