@<TRIPOS>MOLECULE
IMPHY000272
 86 89 0 0 0
SMALL
GASTEIGER

@<TRIPOS>ATOM
      1 O           6.7049   -2.3806    0.0000 O.3     1  UNL1       -0.3404
      2 O           8.4369   -2.3806    0.0000 O.3     1  UNL1       -0.3061
      3 O           6.7049   -5.3806    0.0000 O.3     1  UNL1       -0.3864
      4 O           4.9728   -4.3806    0.0000 O.3     1  UNL1       -0.3865
      5 O           8.4369   -4.3806    0.0000 O.3     1  UNL1       -0.3841
      6 O           7.5709   -0.8806    0.0000 O.2     1  UNL1       -0.4666
      7 O           4.1068   -2.8806    0.0000 O.3     1  UNL1       -0.3924
      8 O           6.8093    1.2118    0.0000 O.3     1  UNL1       -0.4610
      9 O          11.7966    1.2118    0.0000 O.3     1  UNL1       -0.4643
     10 O          11.9010   -1.3806    0.0000 O.3     1  UNL1       -0.3910
     11 O           8.1362    2.3251    0.0000 O.2     1  UNL1       -0.2452
     12 O          10.4697    2.3251    0.0000 O.2     1  UNL1       -0.2508
     13 O           4.5802    5.2157    0.0000 O.3     1  UNL1       -0.5033
     14 O          16.6794    2.9890    0.0000 O.3     1  UNL1       -0.5033
     15 O           2.6106    4.8684    0.0000 O.3     1  UNL1       -0.5033
     16 O          15.9953    4.8684    0.0000 O.3     1  UNL1       -0.5033
     17 C           6.7049   -4.3806    0.0000 C.3     1  UNL1        0.1141
     18 C           5.8388   -3.8806    0.0000 C.3     1  UNL1        0.1119
     19 C           7.5709   -3.8806    0.0000 C.3     1  UNL1        0.1343
     20 C           5.8388   -2.8806    0.0000 C.3     1  UNL1        0.1130
     21 C           7.5709   -2.8806    0.0000 C.3     1  UNL1        0.1921
     22 C           4.9728   -2.3806    0.0000 C.3     1  UNL1        0.0730
     23 C           8.4369   -1.3806    0.0000 C.3     1  UNL1        0.2266
     24 C           9.3029    0.1194    0.0000 C.3     1  UNL1        0.0308
     25 C           9.3029   -0.8806    0.0000 C.2     1  UNL1        0.0043
     26 C           8.4369    0.6194    0.0000 C.2     1  UNL1        0.0785
     27 C          10.1690    0.6194    0.0000 C.3     1  UNL1        0.0559
     28 C          10.1690   -1.3806    0.0000 C.2     1  UNL1       -0.0533
     29 C           7.5709    0.1194    0.0000 C.2     1  UNL1        0.0988
     30 C           7.7941    1.3854    0.0000 C.2     1  UNL1        0.3387
     31 C          10.8118    1.3854    0.0000 C.2     1  UNL1        0.3080
     32 C          11.0350   -0.8806    0.0000 C.3     1  UNL1        0.0628
     33 C           6.1665    1.9778    0.0000 C.3     1  UNL1        0.0967
     34 C          12.4394    1.9778    0.0000 C.3     1  UNL1        0.0964
     35 C           5.1817    1.8042    0.0000 C.3     1  UNL1        0.0069
     36 C          13.4242    1.8042    0.0000 C.3     1  UNL1        0.0069
     37 C           4.5389    2.5702    0.0000 C.ar    1  UNL1       -0.0405
     38 C          14.0670    2.5702    0.0000 C.ar    1  UNL1       -0.0405
     39 C           4.8810    3.5099    0.0000 C.ar    1  UNL1       -0.0132
     40 C           3.5541    2.3966    0.0000 C.ar    1  UNL1       -0.0548
     41 C          15.0518    2.3966    0.0000 C.ar    1  UNL1       -0.0132
     42 C          13.7249    3.5099    0.0000 C.ar    1  UNL1       -0.0548
     43 C           4.2382    4.2760    0.0000 C.ar    1  UNL1        0.1585
     44 C          15.6945    3.1626    0.0000 C.ar    1  UNL1        0.1585
     45 C           2.9114    3.1626    0.0000 C.ar    1  UNL1       -0.0163
     46 C          14.3677    4.2760    0.0000 C.ar    1  UNL1       -0.0163
     47 C           3.2534    4.1023    0.0000 C.ar    1  UNL1        0.1582
     48 C          15.3525    4.1023    0.0000 C.ar    1  UNL1        0.1582
     49 H           7.2418   -4.6906    0.0000 H       1  UNL1        0.0648
     50 H           5.8388   -4.5006    0.0000 H       1  UNL1        0.0647
     51 H           8.1078   -3.5706    0.0000 H       1  UNL1        0.0671
     52 H           5.8388   -2.2606    0.0000 H       1  UNL1        0.0647
     53 H           7.5709   -2.2606    0.0000 H       1  UNL1        0.0939
     54 H           5.3713   -1.9057    0.0000 H       1  UNL1        0.0584
     55 H           4.5743   -1.9057    0.0000 H       1  UNL1        0.0584
     56 H           8.9739   -1.6906    0.0000 H       1  UNL1        0.1109
     57 H           9.3029    0.7394    0.0000 H       1  UNL1        0.0404
     58 H           6.1679   -5.6906    0.0000 H       1  UNL1        0.2100
     59 H           4.9728   -5.0006    0.0000 H       1  UNL1        0.2100
     60 H           8.4369   -5.0006    0.0000 H       1  UNL1        0.2101
     61 H          10.2410    0.0036    0.0000 H       1  UNL1        0.0387
     62 H           9.7704    1.0943    0.0000 H       1  UNL1        0.0387
     63 H          10.1690   -2.0006    0.0000 H       1  UNL1        0.0596
     64 H           7.0340    0.4294    0.0000 H       1  UNL1        0.1030
     65 H           3.5699   -2.5706    0.0000 H       1  UNL1        0.2095
     66 H          11.4335   -0.4057    0.0000 H       1  UNL1        0.0601
     67 H          10.6365   -0.4057    0.0000 H       1  UNL1        0.0601
     68 H           6.7035    2.2878    0.0000 H       1  UNL1        0.0701
     69 H           5.9545    2.5604    0.0000 H       1  UNL1        0.0701
     70 H          12.6514    2.5604    0.0000 H       1  UNL1        0.0701
     71 H          11.9024    2.2878    0.0000 H       1  UNL1        0.0701
     72 H          12.4380   -1.0706    0.0000 H       1  UNL1        0.2098
     73 H           4.6448    1.4942    0.0000 H       1  UNL1        0.0346
     74 H           5.3938    1.2216    0.0000 H       1  UNL1        0.0346
     75 H          13.2121    1.2216    0.0000 H       1  UNL1        0.0346
     76 H          13.9611    1.4942    0.0000 H       1  UNL1        0.0346
     77 H           5.4915    3.6176    0.0000 H       1  UNL1        0.0658
     78 H           3.3421    1.8140    0.0000 H       1  UNL1        0.0621
     79 H          15.2638    1.8140    0.0000 H       1  UNL1        0.0658
     80 H          13.1144    3.6176    0.0000 H       1  UNL1        0.0621
     81 H           2.3008    3.0550    0.0000 H       1  UNL1        0.0655
     82 H          14.1557    4.8586    0.0000 H       1  UNL1        0.0655
     83 H           4.1817    5.6906    0.0000 H       1  UNL1        0.2923
     84 H          16.8914    2.4064    0.0000 H       1  UNL1        0.2923
     85 H           2.0000    4.7607    0.0000 H       1  UNL1        0.2923
     86 H          16.6059    4.7607    0.0000 H       1  UNL1        0.2923
@<TRIPOS>BOND
     1     1    20    1
     2     1    21    1
     3    21     2    1
     4    23     2    1
     5    17     3    1
     6     3    58    1
     7    18     4    1
     8     4    59    1
     9    19     5    1
    10     5    60    1
    11     6    23    1
    12     6    29    1
    13     7    22    1
    14     7    65    1
    15     8    30    1
    16     8    33    1
    17     9    31    1
    18     9    34    1
    19    10    32    1
    20    10    72    1
    21    11    30    2
    22    12    31    2
    23    13    43    1
    24    13    83    1
    25    14    44    1
    26    14    84    1
    27    15    47    1
    28    15    85    1
    29    16    48    1
    30    16    86    1
    31    17    18    1
    32    17    19    1
    33    17    49    1
    34    18    20    1
    35    18    50    1
    36    19    21    1
    37    19    51    1
    38    20    22    1
    39    20    52    1
    40    21    53    1
    41    22    54    1
    42    22    55    1
    43    23    25    1
    44    23    56    1
    45    24    25    1
    46    24    26    1
    47    24    27    1
    48    24    57    1
    49    25    28    2
    50    26    29    2
    51    26    30    1
    52    27    31    1
    53    27    61    1
    54    27    62    1
    55    28    32    1
    56    28    63    1
    57    29    64    1
    58    32    66    1
    59    32    67    1
    60    33    35    1
    61    33    68    1
    62    33    69    1
    63    34    36    1
    64    34    70    1
    65    34    71    1
    66    35    37    1
    67    35    73    1
    68    35    74    1
    69    36    38    1
    70    36    75    1
    71    36    76    1
    72    37    39   ar
    73    37    40   ar
    74    38    41   ar
    75    38    42   ar
    76    39    43   ar
    77    39    77    1
    78    40    45   ar
    79    40    78    1
    80    41    44   ar
    81    41    79    1
    82    42    46   ar
    83    42    80    1
    84    43    47   ar
    85    44    48   ar
    86    45    47   ar
    87    45    81    1
    88    46    48   ar
    89    46    82    1
