@<TRIPOS>MOLECULE
IMPHY002524
 54 56 0 0 0
SMALL
GASTEIGER

@<TRIPOS>ATOM
      1 O           6.0812   -1.4023    0.0000 O.2     1  UNL1       -0.4547
      2 O           9.6648    1.1345    0.0000 O.3     1  UNL1       -0.5063
      3 O           9.6648   -2.3296    0.0000 O.3     1  UNL1       -0.5063
      4 O           2.5369   -1.5976    0.0000 O.3     1  UNL1       -0.5066
      5 C          10.6648   -0.5976    0.0000 C.3     1  UNL1       -0.0023
      6 C           9.6648   -0.5976    0.0000 C.ar    1  UNL1        0.0391
      7 C          12.6648    1.1345    0.0000 C.3     1  UNL1       -0.0286
      8 C          12.1648    0.2685    0.0000 C.2     1  UNL1       -0.0759
      9 C           7.6648   -0.5976    0.0000 C.ar    1  UNL1        0.0242
     10 C          11.1648    0.2685    0.0000 C.2     1  UNL1       -0.0805
     11 C          13.6648    1.1345    0.0000 C.3     1  UNL1       -0.0308
     12 C           6.6648   -0.5976    0.0000 C.ar    1  UNL1        0.1365
     13 C           9.1648    0.2685    0.0000 C.ar    1  UNL1        0.1245
     14 C           9.1648   -1.4636    0.0000 C.ar    1  UNL1        0.1245
     15 C           8.1648    0.2685    0.0000 C.ar    1  UNL1       -0.0090
     16 C           8.1648   -1.4636    0.0000 C.ar    1  UNL1       -0.0090
     17 C           5.1350   -0.0976    0.0000 C.ar    1  UNL1        0.0210
     18 C           6.0812    0.2072    0.0000 C.ar    1  UNL1       -0.0081
     19 C           5.1350   -1.0976    0.0000 C.ar    1  UNL1        0.1391
     20 C          12.6648   -0.5976    0.0000 C.3     1  UNL1       -0.0438
     21 C          14.1648    2.0005    0.0000 C.2     1  UNL1       -0.0850
     22 C           4.2690    0.4024    0.0000 C.ar    1  UNL1       -0.0475
     23 C           4.2690   -1.5976    0.0000 C.ar    1  UNL1        0.0227
     24 C          15.1648    2.0005    0.0000 C.2     1  UNL1       -0.0796
     25 C           3.4030   -1.0976    0.0000 C.ar    1  UNL1        0.1204
     26 C           3.4030   -0.0976    0.0000 C.ar    1  UNL1       -0.0194
     27 C          15.6648    2.8665    0.0000 C.3     1  UNL1       -0.0440
     28 C          15.6648    1.1345    0.0000 C.3     1  UNL1       -0.0440
     29 H          10.5572   -1.2081    0.0000 H       1  UNL1        0.0358
     30 H          11.2474   -0.8096    0.0000 H       1  UNL1        0.0358
     31 H          12.7725    1.7451    0.0000 H       1  UNL1        0.0313
     32 H          12.0822    1.3466    0.0000 H       1  UNL1        0.0313
     33 H          10.8548    0.8054    0.0000 H       1  UNL1        0.0575
     34 H          13.5572    0.5239    0.0000 H       1  UNL1        0.0310
     35 H          14.2474    0.9224    0.0000 H       1  UNL1        0.0310
     36 H           7.8548    0.8054    0.0000 H       1  UNL1        0.0661
     37 H           7.8548   -2.0005    0.0000 H       1  UNL1        0.0661
     38 H           6.2738    0.7965    0.0000 H       1  UNL1        0.0661
     39 H          12.1279   -0.9076    0.0000 H       1  UNL1        0.0274
     40 H          12.9748   -1.1345    0.0000 H       1  UNL1        0.0274
     41 H          13.2018   -0.2876    0.0000 H       1  UNL1        0.0274
     42 H          13.8548    2.5375    0.0000 H       1  UNL1        0.0572
     43 H           4.2690    1.0224    0.0000 H       1  UNL1        0.0626
     44 H           4.2690   -2.2176    0.0000 H       1  UNL1        0.0691
     45 H           2.8660    0.2124    0.0000 H       1  UNL1        0.0654
     46 H           9.3548    1.6714    0.0000 H       1  UNL1        0.2921
     47 H           9.3548   -2.8665    0.0000 H       1  UNL1        0.2921
     48 H          16.2018    2.5565    0.0000 H       1  UNL1        0.0274
     49 H          15.9748    3.4035    0.0000 H       1  UNL1        0.0274
     50 H          15.1279    0.8245    0.0000 H       1  UNL1        0.0274
     51 H          15.9748    0.5976    0.0000 H       1  UNL1        0.0274
     52 H          16.2018    1.4445    0.0000 H       1  UNL1        0.0274
     53 H          15.1279    3.1765    0.0000 H       1  UNL1        0.0274
     54 H           2.0000   -1.2876    0.0000 H       1  UNL1        0.2921
@<TRIPOS>BOND
     1     1    12   ar
     2     1    19   ar
     3     2    13    1
     4     2    46    1
     5     3    14    1
     6     3    47    1
     7     4    25    1
     8     4    54    1
     9     5     6    1
    10     5    10    1
    11     5    29    1
    12     5    30    1
    13     6    13   ar
    14     6    14   ar
    15     7     8    1
    16     7    11    1
    17     7    31    1
    18     7    32    1
    19     8    10    2
    20     8    20    1
    21     9    12    1
    22     9    15   ar
    23     9    16   ar
    24    10    33    1
    25    11    21    1
    26    11    34    1
    27    11    35    1
    28    12    18   ar
    29    13    15   ar
    30    14    16   ar
    31    15    36    1
    32    16    37    1
    33    17    18   ar
    34    17    19   ar
    35    17    22   ar
    36    18    38    1
    37    19    23   ar
    38    20    39    1
    39    20    40    1
    40    20    41    1
    41    21    24    2
    42    21    42    1
    43    22    26   ar
    44    22    43    1
    45    23    25   ar
    46    23    44    1
    47    24    27    1
    48    24    28    1
    49    25    26   ar
    50    26    45    1
    51    27    48    1
    52    27    49    1
    53    27    53    1
    54    28    50    1
    55    28    51    1
    56    28    52    1
