@<TRIPOS>MOLECULE
IMPHY005053
 36 37 0 0 0
SMALL
GASTEIGER

@<TRIPOS>ATOM
      1 O           2.8660   -0.9050    0.0000 O.3     1  UNL1       -0.4943
      2 O           4.5981   -3.9050    0.0000 O.3     1  UNL1       -0.5060
      3 O           3.7320    0.5950    0.0000 O.2     1  UNL1       -0.2872
      4 O           8.9282    3.5950    0.0000 O.3     1  UNL1       -0.5068
      5 O           7.1962   -2.4050    0.0000 O.2     1  UNL1       -0.2956
      6 C           4.5981   -0.9050    0.0000 C.ar    1  UNL1        0.0641
      7 C           3.7320   -1.4050    0.0000 C.ar    1  UNL1        0.1344
      8 C           5.4641   -1.4050    0.0000 C.ar    1  UNL1       -0.0337
      9 C           5.4641   -2.4050    0.0000 C.ar    1  UNL1        0.0565
     10 C           3.7320   -2.4050    0.0000 C.ar    1  UNL1        0.0229
     11 C           4.5981   -2.9050    0.0000 C.ar    1  UNL1        0.1305
     12 C           4.5981    0.0950    0.0000 C.2     1  UNL1        0.1896
     13 C           6.3301    2.0950    0.0000 C.ar    1  UNL1       -0.0247
     14 C           5.4641    0.5950    0.0000 C.2     1  UNL1       -0.0137
     15 C           5.4641    1.5950    0.0000 C.2     1  UNL1       -0.0510
     16 C           7.1962    1.5950    0.0000 C.ar    1  UNL1       -0.0511
     17 C           6.3301    3.0950    0.0000 C.ar    1  UNL1       -0.0511
     18 C           6.3301   -2.9050    0.0000 C.2     1  UNL1        0.1537
     19 C           8.0622    2.0950    0.0000 C.ar    1  UNL1       -0.0196
     20 C           7.1962    3.5950    0.0000 C.ar    1  UNL1       -0.0196
     21 C           8.0622    3.0950    0.0000 C.ar    1  UNL1        0.1169
     22 C           2.0000   -1.4050    0.0000 C.3     1  UNL1        0.0788
     23 H           6.0010   -1.0950    0.0000 H       1  UNL1        0.0634
     24 H           3.1951   -2.7150    0.0000 H       1  UNL1        0.0691
     25 H           6.0010    0.2850    0.0000 H       1  UNL1        0.0656
     26 H           4.9272    1.9050    0.0000 H       1  UNL1        0.0625
     27 H           7.1962    0.9750    0.0000 H       1  UNL1        0.0625
     28 H           5.7932    3.4050    0.0000 H       1  UNL1        0.0625
     29 H           6.3301   -3.5250    0.0000 H       1  UNL1        0.1083
     30 H           8.5991    1.7850    0.0000 H       1  UNL1        0.0654
     31 H           7.1962    4.2150    0.0000 H       1  UNL1        0.0654
     32 H           1.6900   -0.8681    0.0000 H       1  UNL1        0.0660
     33 H           1.4631   -1.7150    0.0000 H       1  UNL1        0.0660
     34 H           2.3100   -1.9419    0.0000 H       1  UNL1        0.0660
     35 H           4.0611   -4.2150    0.0000 H       1  UNL1        0.2922
     36 H           8.9282    4.2150    0.0000 H       1  UNL1        0.2921
@<TRIPOS>BOND
     1     1     7    1
     2     1    22    1
     3     2    11    1
     4     2    35    1
     5     3    12    2
     6     4    21    1
     7     4    36    1
     8     5    18    2
     9     6     7   ar
    10     6     8   ar
    11     6    12    1
    12     7    10   ar
    13     8     9   ar
    14     8    23    1
    15     9    11   ar
    16     9    18    1
    17    10    11   ar
    18    10    24    1
    19    12    14    1
    20    13    15    1
    21    13    16   ar
    22    13    17   ar
    23    14    15    2
    24    14    25    1
    25    15    26    1
    26    16    19   ar
    27    16    27    1
    28    17    20   ar
    29    17    28    1
    30    18    29    1
    31    19    21   ar
    32    19    30    1
    33    20    21   ar
    34    20    31    1
    35    22    32    1
    36    22    33    1
    37    22    34    1
