@<TRIPOS>MOLECULE
IMPHY005629
 75 77 0 0 0
SMALL
GASTEIGER

@<TRIPOS>ATOM
      1 O           7.5496    0.0403    0.0000 O.2     1  UNL1       -0.2738
      2 O           5.9531   -3.8080    0.0000 O.2     1  UNL1       -0.2741
      3 O           4.8516   -2.6826    0.0000 O.3     1  UNL1       -0.4948
      4 O           3.9749   -0.4942    0.0000 O.2     1  UNL1       -0.2734
      5 N           7.0496   -2.5578    0.0000 N.am    1  UNL1       -0.3024
      6 N           4.7176   -1.4505    0.0000 N.3     1  UNL1       -0.2974
      7 N           6.0496   -0.8257    0.0000 N.am    1  UNL1       -0.3021
      8 N           4.0836    1.1652    0.0000 N.am    1  UNL1       -0.2904
      9 C           8.5496   -1.6917    0.0000 C.3     1  UNL1       -0.0171
     10 C           7.5496   -1.6917    0.0000 C.3     1  UNL1        0.1019
     11 C           9.0496   -2.5578    0.0000 C.3     1  UNL1       -0.0512
     12 C           5.2176   -2.3166    0.0000 C.3     1  UNL1        0.0909
     13 C           7.0496   -0.8257    0.0000 C.2     1  UNL1        0.2342
     14 C           9.0496   -0.8257    0.0000 C.3     1  UNL1       -0.0603
     15 C           6.0836   -2.8166    0.0000 C.2     1  UNL1        0.2312
     16 C           4.3516   -2.8166    0.0000 C.3     1  UNL1       -0.0001
     17 C           5.5496    0.0403    0.0000 C.3     1  UNL1        0.1037
     18 C          10.0495   -2.5578    0.0000 C.3     1  UNL1       -0.0650
     19 C           3.4856   -2.3166    0.0000 C.ar    1  UNL1       -0.0032
     20 C           6.1583    0.8337    0.0000 C.3     1  UNL1       -0.0006
     21 C           5.2176   -0.5845    0.0000 C.3     1  UNL1       -0.0123
     22 C           3.7176   -1.4505    0.0000 C.3     1  UNL1       -0.0123
     23 C           4.5836    0.2991    0.0000 C.2     1  UNL1        0.2374
     24 C           2.6195   -1.8166    0.0000 C.ar    1  UNL1       -0.0478
     25 C           4.3516   -1.8166    0.0000 C.ar    1  UNL1        0.1233
     26 C           6.2888    1.8251    0.0000 C.ar    1  UNL1       -0.0451
     27 C           2.6195   -0.8166    0.0000 C.ar    1  UNL1       -0.0234
     28 C           4.3516   -0.8166    0.0000 C.ar    1  UNL1       -0.0191
     29 C           3.4856   -0.3166    0.0000 C.ar    1  UNL1       -0.0511
     30 C           2.6195    0.1834    0.0000 C.2     1  UNL1       -0.0407
     31 C           7.2127    2.2078    0.0000 C.ar    1  UNL1       -0.0585
     32 C           5.4955    2.4339    0.0000 C.ar    1  UNL1       -0.0585
     33 C           3.0836    1.1652    0.0000 C.2     1  UNL1       -0.0031
     34 C           7.3432    3.1992    0.0000 C.ar    1  UNL1       -0.0615
     35 C           5.6260    3.4253    0.0000 C.ar    1  UNL1       -0.0615
     36 C           6.5499    3.8080    0.0000 C.ar    1  UNL1       -0.0617
     37 C           4.3516   -3.5486    0.0000 C.3     1  UNL1        0.0788
     38 H           9.1695   -1.6917    0.0000 H       1  UNL1        0.0321
     39 H           7.9746   -2.4278    0.0000 H       1  UNL1        0.0597
     40 H           8.4669   -2.7698    0.0000 H       1  UNL1        0.0266
     41 H           9.1572   -3.1683    0.0000 H       1  UNL1        0.0266
     42 H           5.6560   -1.8782    0.0000 H       1  UNL1        0.0562
     43 H           7.4270   -3.0496    0.0000 H       1  UNL1        0.1495
     44 H           9.5865   -1.1357    0.0000 H       1  UNL1        0.0233
     45 H           9.3596   -0.2888    0.0000 H       1  UNL1        0.0233
     46 H           8.5126   -0.5157    0.0000 H       1  UNL1        0.0233
     47 H           3.9530   -3.2915    0.0000 H       1  UNL1        0.0334
     48 H           4.7501   -3.2915    0.0000 H       1  UNL1        0.0334
     49 H           6.1682   -0.0002    0.0000 H       1  UNL1        0.0598
     50 H           5.7396   -1.3626    0.0000 H       1  UNL1        0.1495
     51 H          10.0495   -3.1778    0.0000 H       1  UNL1        0.0230
     52 H          10.6695   -2.5578    0.0000 H       1  UNL1        0.0230
     53 H          10.0495   -1.9378    0.0000 H       1  UNL1        0.0230
     54 H           6.4914    0.3108    0.0000 H       1  UNL1        0.0336
     55 H           5.5855    1.0709    0.0000 H       1  UNL1        0.0336
     56 H           3.7176   -0.8305    0.0000 H       1  UNL1        0.0391
     57 H           3.0976   -1.4505    0.0000 H       1  UNL1        0.0391
     58 H           3.7176   -2.0705    0.0000 H       1  UNL1        0.0391
     59 H           5.7545   -0.8945    0.0000 H       1  UNL1        0.0391
     60 H           5.5276   -0.0476    0.0000 H       1  UNL1        0.0391
     61 H           4.6807   -0.2745    0.0000 H       1  UNL1        0.0391
     62 H           2.0826   -2.1266    0.0000 H       1  UNL1        0.0627
     63 H           4.8885   -0.5066    0.0000 H       1  UNL1        0.0654
     64 H           4.0836    1.7852    0.0000 H       1  UNL1        0.1543
     65 H           3.4856    0.3034    0.0000 H       1  UNL1        0.0625
     66 H           2.0000    0.2078    0.0000 H       1  UNL1        0.0636
     67 H           7.7046    1.8304    0.0000 H       1  UNL1        0.0620
     68 H           4.9227    2.1966    0.0000 H       1  UNL1        0.0620
     69 H           2.7866    1.7094    0.0000 H       1  UNL1        0.0782
     70 H           7.9160    3.4365    0.0000 H       1  UNL1        0.0618
     71 H           5.1341    3.8028    0.0000 H       1  UNL1        0.0618
     72 H           6.6308    4.4227    0.0000 H       1  UNL1        0.0618
     73 H           3.8147   -3.2387    0.0000 H       1  UNL1        0.0660
     74 H           4.0417   -4.0856    0.0000 H       1  UNL1        0.0660
     75 H           4.8886   -3.8586    0.0000 H       1  UNL1        0.0660
@<TRIPOS>BOND
     1     1    13    2
     2     2    15    2
     3     3    25    1
     4     3    37    1
     5     4    23    2
     6     5    10    1
     7     5    15   am
     8     5    43    1
     9    12     6    1
    10     6    21    1
    11     6    22    1
    12     7    13   am
    13     7    17    1
    14     7    50    1
    15     8    23   am
    16     8    33    1
    17     8    64    1
    18     9    10    1
    19     9    11    1
    20     9    14    1
    21     9    38    1
    22    10    13    1
    23    10    39    1
    24    11    18    1
    25    11    40    1
    26    11    41    1
    27    12    15    1
    28    12    16    1
    29    12    42    1
    30    14    44    1
    31    14    45    1
    32    14    46    1
    33    16    19    1
    34    16    47    1
    35    16    48    1
    36    17    20    1
    37    17    23    1
    38    17    49    1
    39    18    51    1
    40    18    52    1
    41    18    53    1
    42    19    24   ar
    43    19    25   ar
    44    20    26    1
    45    20    54    1
    46    20    55    1
    47    21    59    1
    48    21    60    1
    49    21    61    1
    50    22    56    1
    51    22    57    1
    52    22    58    1
    53    24    27   ar
    54    24    62    1
    55    25    28   ar
    56    26    31   ar
    57    26    32   ar
    58    27    29   ar
    59    27    30    1
    60    28    29   ar
    61    28    63    1
    62    29    65    1
    63    30    33    2
    64    30    66    1
    65    31    34   ar
    66    31    67    1
    67    32    35   ar
    68    32    68    1
    69    33    69    1
    70    34    36   ar
    71    34    70    1
    72    35    36   ar
    73    35    71    1
    74    36    72    1
    75    37    73    1
    76    37    74    1
    77    37    75    1
