@<TRIPOS>MOLECULE
IMPHY017278
 37 37 0 0 0
SMALL
GASTEIGER

@<TRIPOS>ATOM
      1 O           3.7320    0.2500    0.0000 O.3     1  UNL1       -0.4612
      2 O           2.0000    0.2500    0.0000 O.2     1  UNL1       -0.2450
      3 O           2.8660   -4.2500    0.0000 O.3     1  UNL1       -0.4951
      4 C           4.5981    2.7500    0.0000 C.3     1  UNL1       -0.0500
      5 C           5.4641    3.2500    0.0000 C.3     1  UNL1       -0.0532
      6 C           4.5981    1.7500    0.0000 C.3     1  UNL1       -0.0185
      7 C           5.4641    4.2500    0.0000 C.3     1  UNL1       -0.0559
      8 C           3.7320    1.2500    0.0000 C.3     1  UNL1        0.0928
      9 C           6.3301    4.7500    0.0000 C.3     1  UNL1       -0.0653
     10 C           2.8660   -0.2500    0.0000 C.2     1  UNL1        0.3392
     11 C           2.8660   -1.2500    0.0000 C.ar    1  UNL1        0.0592
     12 C           2.0000   -1.7500    0.0000 C.ar    1  UNL1       -0.0443
     13 C           3.7320   -1.7500    0.0000 C.ar    1  UNL1       -0.0443
     14 C           2.8660   -3.2500    0.0000 C.ar    1  UNL1        0.1201
     15 C           2.0000   -2.7500    0.0000 C.ar    1  UNL1       -0.0192
     16 C           3.7320   -2.7500    0.0000 C.ar    1  UNL1       -0.0192
     17 C           2.0000   -4.7500    0.0000 C.3     1  UNL1        0.0788
     18 H           4.3860    3.3326    0.0000 H       1  UNL1        0.0266
     19 H           3.9875    2.6423    0.0000 H       1  UNL1        0.0266
     20 H           5.6762    2.6674    0.0000 H       1  UNL1        0.0265
     21 H           6.0747    3.3577    0.0000 H       1  UNL1        0.0265
     22 H           4.8101    1.1674    0.0000 H       1  UNL1        0.0298
     23 H           5.2087    1.8577    0.0000 H       1  UNL1        0.0298
     24 H           5.2520    4.8326    0.0000 H       1  UNL1        0.0263
     25 H           4.8535    4.1423    0.0000 H       1  UNL1        0.0263
     26 H           3.5200    1.8326    0.0000 H       1  UNL1        0.0697
     27 H           3.1215    1.1423    0.0000 H       1  UNL1        0.0697
     28 H           6.6401    4.2131    0.0000 H       1  UNL1        0.0230
     29 H           6.8671    5.0600    0.0000 H       1  UNL1        0.0230
     30 H           6.0201    5.2869    0.0000 H       1  UNL1        0.0230
     31 H           1.4631   -1.4400    0.0000 H       1  UNL1        0.0627
     32 H           4.2690   -1.4400    0.0000 H       1  UNL1        0.0627
     33 H           1.4631   -3.0600    0.0000 H       1  UNL1        0.0654
     34 H           4.2690   -3.0600    0.0000 H       1  UNL1        0.0654
     35 H           1.6900   -4.2131    0.0000 H       1  UNL1        0.0660
     36 H           1.4631   -5.0600    0.0000 H       1  UNL1        0.0660
     37 H           2.3100   -5.2869    0.0000 H       1  UNL1        0.0660
@<TRIPOS>BOND
     1     1     8    1
     2     1    10    1
     3     2    10    2
     4     3    14    1
     5     3    17    1
     6     4     5    1
     7     4     6    1
     8     4    18    1
     9     4    19    1
    10     5     7    1
    11     5    20    1
    12     5    21    1
    13     6     8    1
    14     6    22    1
    15     6    23    1
    16     7     9    1
    17     7    24    1
    18     7    25    1
    19     8    26    1
    20     8    27    1
    21     9    28    1
    22     9    29    1
    23     9    30    1
    24    10    11    1
    25    11    12   ar
    26    11    13   ar
    27    12    15   ar
    28    12    31    1
    29    13    16   ar
    30    13    32    1
    31    14    15   ar
    32    14    16   ar
    33    15    33    1
    34    16    34    1
    35    17    35    1
    36    17    36    1
    37    17    37    1
