@<TRIPOS>MOLECULE
IMPHY012624
 26 26 0 0 0
SMALL
GASTEIGER

@<TRIPOS>ATOM
      1 C           3.7320    0.5670    0.0000 C.3     1  UNL1       -0.0099
      2 C           4.5981    0.0670    0.0000 C.3     1  UNL1       -0.0404
      3 C           2.8660    0.0670    0.0000 C.2     1  UNL1       -0.0462
      4 C           4.5981   -0.9330    0.0000 C.3     1  UNL1       -0.0334
      5 C           4.2320    1.4330    0.0000 C.3     1  UNL1       -0.0558
      6 C           3.2320    1.4330    0.0000 C.3     1  UNL1       -0.0558
      7 C           2.8660   -0.9330    0.0000 C.2     1  UNL1       -0.0512
      8 C           3.7320   -1.4330    0.0000 C.2     1  UNL1       -0.0808
      9 C           2.0000   -1.4330    0.0000 C.3     1  UNL1       -0.0397
     10 C           2.0000    0.5670    0.0000 C.2     1  UNL1       -0.0947
     11 H           5.2087   -0.0407    0.0000 H       1  UNL1        0.0277
     12 H           4.8101    0.6496    0.0000 H       1  UNL1        0.0277
     13 H           4.8101   -1.5156    0.0000 H       1  UNL1        0.0308
     14 H           5.2087   -0.8254    0.0000 H       1  UNL1        0.0308
     15 H           4.7690    1.1230    0.0000 H       1  UNL1        0.0238
     16 H           4.5420    1.9700    0.0000 H       1  UNL1        0.0238
     17 H           3.6951    1.7430    0.0000 H       1  UNL1        0.0238
     18 H           3.7690    1.7430    0.0000 H       1  UNL1        0.0238
     19 H           2.9220    1.9700    0.0000 H       1  UNL1        0.0238
     20 H           2.6951    1.1230    0.0000 H       1  UNL1        0.0238
     21 H           3.7320   -2.0530    0.0000 H       1  UNL1        0.0575
     22 H           1.6900   -0.8961    0.0000 H       1  UNL1        0.0278
     23 H           1.4631   -1.7430    0.0000 H       1  UNL1        0.0278
     24 H           2.3100   -1.9700    0.0000 H       1  UNL1        0.0278
     25 H           2.0000    1.1870    0.0000 H       1  UNL1        0.0538
     26 H           1.4631    0.2570    0.0000 H       1  UNL1        0.0538
@<TRIPOS>BOND
     1     1     2    1
     2     1     3    1
     3     1     5    1
     4     1     6    1
     5     2     4    1
     6     2    11    1
     7     2    12    1
     8     3     7    1
     9     3    10    2
    10     4     8    1
    11     4    13    1
    12     4    14    1
    13     5    15    1
    14     5    16    1
    15     5    17    1
    16     6    18    1
    17     6    19    1
    18     6    20    1
    19     7     8    2
    20     7     9    1
    21     8    21    1
    22     9    22    1
    23     9    23    1
    24     9    24    1
    25    10    25    1
    26    10    26    1
