@<TRIPOS>MOLECULE
IMPHY009552
 86 90 0 0 0
SMALL
GASTEIGER

@<TRIPOS>ATOM
      1 O           7.9120   -2.2788    0.0000 O.3     1  UNL1       -0.4606
      2 O           9.3195    1.8870    0.0000 O.3     1  UNL1       -0.3914
      3 O           4.9190    2.9596    0.0000 O.3     1  UNL1       -0.3478
      4 O           6.6791    2.6809    0.0000 O.3     1  UNL1       -0.3667
      5 O          13.0711   -0.6343    0.0000 O.2     1  UNL1       -0.2921
      6 O           9.1836   -3.4547    0.0000 O.2     1  UNL1       -0.2512
      7 C           8.2861   -0.5486    0.0000 C.3     1  UNL1        0.0323
      8 C           8.9565    0.1934    0.0000 C.3     1  UNL1        0.0066
      9 C           7.0009    0.6126    0.0000 C.3     1  UNL1       -0.0046
     10 C           9.9782   -0.0092    0.0000 C.3     1  UNL1       -0.0038
     11 C           7.3083   -0.3390    0.0000 C.2     1  UNL1       -0.0574
     12 C          10.3060   -0.9979    0.0000 C.3     1  UNL1       -0.0163
     13 C           8.6491    1.1450    0.0000 C.3     1  UNL1        0.0605
     14 C           8.5909   -1.5446    0.0000 C.3     1  UNL1        0.1127
     15 C           6.0068    0.6118    0.0000 C.3     1  UNL1       -0.0209
     16 C           7.6713    1.3546    0.0000 C.3     1  UNL1       -0.0171
     17 C           9.6077   -1.7708    0.0000 C.3     1  UNL1       -0.0103
     18 C          11.3651   -1.2335    0.0000 C.3     1  UNL1        0.0311
     19 C           5.6988   -0.3334    0.0000 C.3     1  UNL1       -0.0304
     20 C           5.4190    1.4208    0.0000 C.3     1  UNL1        0.0162
     21 C           7.6156   -1.2905    0.0000 C.3     1  UNL1       -0.0521
     22 C           6.5015   -0.9198    0.0000 C.2     1  UNL1       -0.0833
     23 C           6.6935    1.5642    0.0000 C.3     1  UNL1       -0.0555
     24 C           9.6635    0.9400    0.0000 C.3     1  UNL1       -0.0554
     25 C          10.6868    0.8125    0.0000 C.2     1  UNL1       -0.0741
     26 C           4.4190    1.4208    0.0000 C.3     1  UNL1       -0.0185
     27 C          12.0925   -0.4284    0.0000 C.2     1  UNL1        0.1617
     28 C           5.7281    2.3718    0.0000 C.3     1  UNL1        0.1597
     29 C          11.7511    0.6014    0.0000 C.2     1  UNL1       -0.0221
     30 C          12.1045   -1.9067    0.0000 C.3     1  UNL1       -0.0525
     31 C          11.1518   -2.2104    0.0000 C.3     1  UNL1       -0.0525
     32 C           4.1100    2.3718    0.0000 C.3     1  UNL1        0.0646
     33 C           3.1590    2.6809    0.0000 C.3     1  UNL1       -0.0177
     34 C           8.2083   -3.2338    0.0000 C.2     1  UNL1        0.3042
     35 C           2.9511    3.6590    0.0000 C.3     1  UNL1       -0.0510
     36 C           2.4158    2.0117    0.0000 C.3     1  UNL1       -0.0601
     37 C           7.5294   -3.9680    0.0000 C.3     1  UNL1        0.0332
     38 C           2.0000    3.9680    0.0000 C.3     1  UNL1       -0.0650
     39 H           9.5214    0.8285    0.0000 H       1  UNL1        0.0344
     40 H          10.5642   -1.8077    0.0000 H       1  UNL1        0.0320
     41 H           8.4585    1.7350    0.0000 H       1  UNL1        0.0597
     42 H           8.7758   -2.1364    0.0000 H       1  UNL1        0.0743
     43 H           5.1672    0.4792    0.0000 H       1  UNL1        0.0316
     44 H           7.9046    1.9291    0.0000 H       1  UNL1        0.0299
     45 H           7.1461    1.6841    0.0000 H       1  UNL1        0.0299
     46 H           9.3715   -2.3440    0.0000 H       1  UNL1        0.0304
     47 H          10.1321   -2.1016    0.0000 H       1  UNL1        0.0304
     48 H           5.1328   -0.0804    0.0000 H       1  UNL1        0.0310
     49 H           5.3877   -0.8697    0.0000 H       1  UNL1        0.0310
     50 H           5.0332    0.6634    0.0000 H       1  UNL1        0.0353
     51 H           7.1556   -0.8749    0.0000 H       1  UNL1        0.0239
     52 H           7.2000   -1.7506    0.0000 H       1  UNL1        0.0239
     53 H           8.0757   -1.7062    0.0000 H       1  UNL1        0.0239
     54 H           6.4994   -1.5398    0.0000 H       1  UNL1        0.0572
     55 H           7.2835    1.7548    0.0000 H       1  UNL1        0.0238
     56 H           6.5030    2.1542    0.0000 H       1  UNL1        0.0238
     57 H           6.1036    1.3737    0.0000 H       1  UNL1        0.0238
     58 H          10.2520    1.1351    0.0000 H       1  UNL1        0.0238
     59 H           9.4684    1.5285    0.0000 H       1  UNL1        0.0238
     60 H           9.0750    0.7449    0.0000 H       1  UNL1        0.0238
     61 H          10.4849    1.3987    0.0000 H       1  UNL1        0.0579
     62 H           3.8126    1.2919    0.0000 H       1  UNL1        0.0295
     63 H           4.4838    0.8042    0.0000 H       1  UNL1        0.0295
     64 H           5.8250    2.9842    0.0000 H       1  UNL1        0.0910
     65 H          12.1614    1.0662    0.0000 H       1  UNL1        0.0649
     66 H           9.1290    2.4770    0.0000 H       1  UNL1        0.2098
     67 H          10.5460   -2.0782    0.0000 H       1  UNL1        0.0239
     68 H          11.0195   -2.8162    0.0000 H       1  UNL1        0.0239
     69 H          11.7575   -2.3427    0.0000 H       1  UNL1        0.0239
     70 H          11.6871   -2.3652    0.0000 H       1  UNL1        0.0239
     71 H          12.5629   -2.3242    0.0000 H       1  UNL1        0.0239
     72 H          12.5219   -1.4483    0.0000 H       1  UNL1        0.0239
     73 H           4.0130    2.9842    0.0000 H       1  UNL1        0.0600
     74 H           3.3357    1.8494    0.0000 H       1  UNL1        0.0323
     75 H           6.8080    3.2873    0.0000 H       1  UNL1        0.2125
     76 H           3.5707    3.6806    0.0000 H       1  UNL1        0.0266
     77 H           3.0373    4.2730    0.0000 H       1  UNL1        0.0266
     78 H           2.0010    2.4725    0.0000 H       1  UNL1        0.0233
     79 H           1.9551    1.5969    0.0000 H       1  UNL1        0.0233
     80 H           2.8307    1.5510    0.0000 H       1  UNL1        0.0233
     81 H           7.0742   -3.5471    0.0000 H       1  UNL1        0.0342
     82 H           7.1084   -4.4232    0.0000 H       1  UNL1        0.0342
     83 H           7.9846   -4.3890    0.0000 H       1  UNL1        0.0342
     84 H           2.1916    4.5577    0.0000 H       1  UNL1        0.0230
     85 H           1.4103    4.1596    0.0000 H       1  UNL1        0.0230
     86 H           1.8084    3.3784    0.0000 H       1  UNL1        0.0230
@<TRIPOS>BOND
     1    14     1    1
     2     1    34    1
     3    13     2    1
     4     2    66    1
     5     3    28    1
     6     3    32    1
     7    28     4    1
     8     4    75    1
     9     5    27    2
    10     6    34    2
    11     7     8    1
    12     7    11    1
    13     7    14    1
    14     7    21    1
    15     8    10    1
    16     8    13    1
    17     8    39    1
    18     9    11    1
    19     9    15    1
    20     9    16    1
    21     9    23    1
    22    10    12    1
    23    10    24    1
    24    10    25    1
    25    11    22    2
    26    12    17    1
    27    12    18    1
    28    12    40    1
    29    13    16    1
    30    13    41    1
    31    14    17    1
    32    14    42    1
    33    15    19    1
    34    15    20    1
    35    15    43    1
    36    16    44    1
    37    16    45    1
    38    17    46    1
    39    17    47    1
    40    18    27    1
    41    18    30    1
    42    18    31    1
    43    19    22    1
    44    19    48    1
    45    19    49    1
    46    20    26    1
    47    20    28    1
    48    20    50    1
    49    21    51    1
    50    21    52    1
    51    21    53    1
    52    22    54    1
    53    23    55    1
    54    23    56    1
    55    23    57    1
    56    24    58    1
    57    24    59    1
    58    24    60    1
    59    25    29    2
    60    25    61    1
    61    26    32    1
    62    26    62    1
    63    26    63    1
    64    27    29    1
    65    28    64    1
    66    29    65    1
    67    30    70    1
    68    30    71    1
    69    30    72    1
    70    31    67    1
    71    31    68    1
    72    31    69    1
    73    32    33    1
    74    32    73    1
    75    33    35    1
    76    33    36    1
    77    33    74    1
    78    34    37    1
    79    35    38    1
    80    35    76    1
    81    35    77    1
    82    36    78    1
    83    36    79    1
    84    36    80    1
    85    37    81    1
    86    37    82    1
    87    37    83    1
    88    38    84    1
    89    38    85    1
    90    38    86    1
