@<TRIPOS>MOLECULE
IMPHY011799
 54 53 0 0 0
SMALL
GASTEIGER

@<TRIPOS>ATOM
      1 O           2.5369    4.1900    0.0000 O.3     1  UNL1       -0.4806
      2 O           3.4030    2.6900    0.0000 O.2     1  UNL1       -0.2510
      3 C          10.3312   -0.3100    0.0000 C.3     1  UNL1       -0.0531
      4 C          11.1972   -0.8100    0.0000 C.3     1  UNL1       -0.0531
      5 C          10.3312    0.6900    0.0000 C.3     1  UNL1       -0.0530
      6 C          11.1972   -1.8100    0.0000 C.3     1  UNL1       -0.0531
      7 C           9.4651    1.1900    0.0000 C.3     1  UNL1       -0.0528
      8 C          12.0632   -2.3100    0.0000 C.3     1  UNL1       -0.0531
      9 C           9.4651    2.1900    0.0000 C.3     1  UNL1       -0.0496
     10 C          12.0632   -3.3100    0.0000 C.3     1  UNL1       -0.0533
     11 C           8.5991    2.6900    0.0000 C.3     1  UNL1       -0.0348
     12 C          12.9292   -3.8100    0.0000 C.3     1  UNL1       -0.0559
     13 C           8.5991    3.6900    0.0000 C.2     1  UNL1       -0.0879
     14 C           6.8671    3.6900    0.0000 C.3     1  UNL1       -0.0347
     15 C           6.0010    4.1900    0.0000 C.3     1  UNL1       -0.0491
     16 C          12.9292   -4.8100    0.0000 C.3     1  UNL1       -0.0653
     17 C           7.7331    4.1900    0.0000 C.2     1  UNL1       -0.0879
     18 C           5.1350    3.6900    0.0000 C.3     1  UNL1       -0.0427
     19 C           4.2690    4.1900    0.0000 C.3     1  UNL1        0.0448
     20 C           3.4030    3.6900    0.0000 C.2     1  UNL1        0.3047
     21 H           9.7206   -0.2023    0.0000 H       1  UNL1        0.0265
     22 H          10.1191   -0.8926    0.0000 H       1  UNL1        0.0265
     23 H          11.8078   -0.9177    0.0000 H       1  UNL1        0.0265
     24 H          11.4092   -0.2274    0.0000 H       1  UNL1        0.0265
     25 H          10.9417    0.5823    0.0000 H       1  UNL1        0.0265
     26 H          10.5432    1.2726    0.0000 H       1  UNL1        0.0265
     27 H          10.5866   -1.7023    0.0000 H       1  UNL1        0.0265
     28 H          10.9851   -2.3926    0.0000 H       1  UNL1        0.0265
     29 H           8.8546    1.2977    0.0000 H       1  UNL1        0.0265
     30 H           9.2531    0.6074    0.0000 H       1  UNL1        0.0265
     31 H          12.6738   -2.4177    0.0000 H       1  UNL1        0.0265
     32 H          12.2753   -1.7274    0.0000 H       1  UNL1        0.0265
     33 H          10.0757    2.0823    0.0000 H       1  UNL1        0.0268
     34 H           9.6772    2.7726    0.0000 H       1  UNL1        0.0268
     35 H          11.4526   -3.2023    0.0000 H       1  UNL1        0.0265
     36 H          11.8512   -3.8926    0.0000 H       1  UNL1        0.0265
     37 H           7.9885    2.7977    0.0000 H       1  UNL1        0.0307
     38 H           8.3871    2.1074    0.0000 H       1  UNL1        0.0307
     39 H          13.5398   -3.9177    0.0000 H       1  UNL1        0.0263
     40 H          13.1413   -3.2274    0.0000 H       1  UNL1        0.0263
     41 H           9.1360    4.0000    0.0000 H       1  UNL1        0.0569
     42 H           6.4685    3.2151    0.0000 H       1  UNL1        0.0307
     43 H           7.2656    3.2151    0.0000 H       1  UNL1        0.0307
     44 H           6.3996    4.6650    0.0000 H       1  UNL1        0.0268
     45 H           5.6025    4.6650    0.0000 H       1  UNL1        0.0268
     46 H          12.3092   -4.8100    0.0000 H       1  UNL1        0.0230
     47 H          12.9292   -5.4300    0.0000 H       1  UNL1        0.0230
     48 H          13.5492   -4.8100    0.0000 H       1  UNL1        0.0230
     49 H           7.7331    4.8100    0.0000 H       1  UNL1        0.0569
     50 H           4.7365    3.2151    0.0000 H       1  UNL1        0.0270
     51 H           5.5335    3.2151    0.0000 H       1  UNL1        0.0270
     52 H           4.6675    4.6650    0.0000 H       1  UNL1        0.0377
     53 H           3.8705    4.6650    0.0000 H       1  UNL1        0.0377
     54 H           2.0000    3.8800    0.0000 H       1  UNL1        0.2951
@<TRIPOS>BOND
     1     1    20    1
     2     1    54    1
     3     2    20    2
     4     3     4    1
     5     3     5    1
     6     3    21    1
     7     3    22    1
     8     4     6    1
     9     4    23    1
    10     4    24    1
    11     5     7    1
    12     5    25    1
    13     5    26    1
    14     6     8    1
    15     6    27    1
    16     6    28    1
    17     7     9    1
    18     7    29    1
    19     7    30    1
    20     8    10    1
    21     8    31    1
    22     8    32    1
    23     9    11    1
    24     9    33    1
    25     9    34    1
    26    10    12    1
    27    10    35    1
    28    10    36    1
    29    11    13    1
    30    11    37    1
    31    11    38    1
    32    12    16    1
    33    12    39    1
    34    12    40    1
    35    13    17    2
    36    13    41    1
    37    14    15    1
    38    14    17    1
    39    14    42    1
    40    14    43    1
    41    15    18    1
    42    15    44    1
    43    15    45    1
    44    16    46    1
    45    16    47    1
    46    16    48    1
    47    17    49    1
    48    18    19    1
    49    18    50    1
    50    18    51    1
    51    19    20    1
    52    19    52    1
    53    19    53    1
