@<TRIPOS>MOLECULE
IMPHY010925
 81 85 0 0 0
SMALL
GASTEIGER

@<TRIPOS>ATOM
      1 O          11.1246    3.0930    0.0000 O.3     1  UNL1       -0.3912
      2 O           8.0167   -1.9174    0.0000 O.3     1  UNL1       -0.4800
      3 O           6.6507   -2.2834    0.0000 O.2     1  UNL1       -0.2500
      4 O           3.9891   -3.0931    0.0000 O.3     1  UNL1       -0.4802
      5 O           5.7211   -3.1064    0.0000 O.2     1  UNL1       -0.2504
      6 C           7.5167   -0.0513    0.0000 C.3     1  UNL1       -0.0090
      7 C           8.4106    1.4833    0.0000 C.3     1  UNL1       -0.0249
      8 C           7.5167    0.9487    0.0000 C.3     1  UNL1       -0.0252
      9 C           6.6507   -0.5513    0.0000 C.3     1  UNL1        0.0944
     10 C           9.3167    0.9695    0.0000 C.3     1  UNL1       -0.0278
     11 C           8.4106   -0.5860    0.0000 C.3     1  UNL1       -0.0457
     12 C           9.3167   -0.0722    0.0000 C.3     1  UNL1       -0.0486
     13 C          10.2605    1.5047    0.0000 C.3     1  UNL1       -0.0056
     14 C           5.7847   -0.0513    0.0000 C.2     1  UNL1       -0.0521
     15 C           4.8746   -0.5582    0.0000 C.3     1  UNL1       -0.0026
     16 C           6.6507    1.4487    0.0000 C.3     1  UNL1       -0.0306
     17 C           8.3856    2.5680    0.0000 C.3     1  UNL1       -0.0447
     18 C           6.6667   -1.5928    0.0000 C.3     1  UNL1       -0.0319
     19 C           4.8666   -1.5998    0.0000 C.3     1  UNL1        0.0741
     20 C           7.6904   -1.0361    0.0000 C.3     1  UNL1       -0.0580
     21 C           5.7687   -2.1206    0.0000 C.3     1  UNL1       -0.0354
     22 C          10.2605    2.5897    0.0000 C.3     1  UNL1        0.0606
     23 C           7.5408    1.9766    0.0000 C.3     1  UNL1       -0.0590
     24 C           5.7847    0.9487    0.0000 C.2     1  UNL1       -0.0831
     25 C           9.3167    3.1250    0.0000 C.3     1  UNL1       -0.0258
     26 C           3.9478    0.0059    0.0000 C.3     1  UNL1       -0.0403
     27 C           3.9312   -2.1495    0.0000 C.3     1  UNL1       -0.0362
     28 C           7.1507   -1.4174    0.0000 C.2     1  UNL1        0.3156
     29 C           2.9999   -0.5220    0.0000 C.3     1  UNL1       -0.0343
     30 C          11.2605    1.5009    0.0000 C.3     1  UNL1       -0.0572
     31 C          10.7572    0.6368    0.0000 C.3     1  UNL1       -0.0572
     32 C           2.9916   -1.6070    0.0000 C.3     1  UNL1       -0.0468
     33 C           4.8589   -2.5997    0.0000 C.2     1  UNL1        0.3115
     34 C           2.0000   -0.5105    0.0000 C.3     1  UNL1       -0.0598
     35 C           2.5100    0.3497    0.0000 C.3     1  UNL1       -0.0598
     36 H           8.2561    0.5294    0.0000 H       1  UNL1        0.0315
     37 H          10.0512    0.5416    0.0000 H       1  UNL1        0.0312
     38 H           8.0060   -1.0558    0.0000 H       1  UNL1        0.0271
     39 H           8.8043   -1.0650    0.0000 H       1  UNL1        0.0271
     40 H           9.5258   -0.6558    0.0000 H       1  UNL1        0.0268
     41 H           9.9276    0.0339    0.0000 H       1  UNL1        0.0268
     42 H           4.8910    0.2917    0.0000 H       1  UNL1        0.0357
     43 H           7.0492    1.9236    0.0000 H       1  UNL1        0.0310
     44 H           6.2522    1.9236    0.0000 H       1  UNL1        0.0310
     45 H           8.1631    3.1467    0.0000 H       1  UNL1        0.0271
     46 H           7.7773    2.4478    0.0000 H       1  UNL1        0.0271
     47 H           6.8848   -2.1732    0.0000 H       1  UNL1        0.0279
     48 H           7.2759   -1.4773    0.0000 H       1  UNL1        0.0279
     49 H           7.0799   -1.1438    0.0000 H       1  UNL1        0.0236
     50 H           7.7982   -1.6467    0.0000 H       1  UNL1        0.0236
     51 H           8.3010   -0.9284    0.0000 H       1  UNL1        0.0236
     52 H           5.3714   -2.5966    0.0000 H       1  UNL1        0.0276
     53 H           6.1697   -2.5935    0.0000 H       1  UNL1        0.0276
     54 H          10.2569    3.2097    0.0000 H       1  UNL1        0.0599
     55 H           7.8466    2.5159    0.0000 H       1  UNL1        0.0235
     56 H           7.0015    2.2825    0.0000 H       1  UNL1        0.0235
     57 H           7.2349    1.4373    0.0000 H       1  UNL1        0.0235
     58 H           5.2477    1.2587    0.0000 H       1  UNL1        0.0572
     59 H           9.7103    3.6040    0.0000 H       1  UNL1        0.0290
     60 H           8.9121    3.5947    0.0000 H       1  UNL1        0.0290
     61 H           4.3560    0.4726    0.0000 H       1  UNL1        0.0276
     62 H           3.5579    0.4879    0.0000 H       1  UNL1        0.0276
     63 H           3.5339   -2.6255    0.0000 H       1  UNL1        0.0276
     64 H           4.3322   -2.6224    0.0000 H       1  UNL1        0.0276
     65 H          11.2581    0.8809    0.0000 H       1  UNL1        0.0236
     66 H          11.8805    1.4985    0.0000 H       1  UNL1        0.0236
     67 H          11.2629    2.1209    0.0000 H       1  UNL1        0.0236
     68 H          10.2190    0.3288    0.0000 H       1  UNL1        0.0236
     69 H          11.0651    0.0986    0.0000 H       1  UNL1        0.0236
     70 H          11.2953    0.9447    0.0000 H       1  UNL1        0.0236
     71 H           2.3816   -1.4962    0.0000 H       1  UNL1        0.0271
     72 H           2.7780   -2.1891    0.0000 H       1  UNL1        0.0271
     73 H          11.1222    3.7130    0.0000 H       1  UNL1        0.2098
     74 H           2.0072    0.1095    0.0000 H       1  UNL1        0.0235
     75 H           3.0505    0.6535    0.0000 H       1  UNL1        0.0235
     76 H           2.2062    0.8902    0.0000 H       1  UNL1        0.0235
     77 H           1.9695    0.0459    0.0000 H       1  UNL1        0.0235
     78 H           1.3800   -0.5033    0.0000 H       1  UNL1        0.0235
     79 H           1.9928   -1.1304    0.0000 H       1  UNL1        0.0235
     80 H           8.0167   -2.5374    0.0000 H       1  UNL1        0.2951
     81 H           3.9843   -3.7130    0.0000 H       1  UNL1        0.2951
@<TRIPOS>BOND
     1    22     1    1
     2     1    73    1
     3     2    28    1
     4     2    80    1
     5     3    28    2
     6     4    33    1
     7     4    81    1
     8     5    33    2
     9     6     8    1
    10     6     9    1
    11     6    11    1
    12     6    20    1
    13     7     8    1
    14     7    10    1
    15     7    17    1
    16     7    23    1
    17     8    16    1
    18     8    36    1
    19     9    14    1
    20     9    18    1
    21     9    28    1
    22    10    12    1
    23    10    13    1
    24    10    37    1
    25    11    12    1
    26    11    38    1
    27    11    39    1
    28    12    40    1
    29    12    41    1
    30    13    22    1
    31    13    30    1
    32    13    31    1
    33    14    15    1
    34    14    24    2
    35    15    19    1
    36    15    26    1
    37    15    42    1
    38    16    24    1
    39    16    43    1
    40    16    44    1
    41    17    25    1
    42    17    45    1
    43    17    46    1
    44    18    21    1
    45    18    47    1
    46    18    48    1
    47    19    21    1
    48    19    27    1
    49    19    33    1
    50    20    49    1
    51    20    50    1
    52    20    51    1
    53    21    52    1
    54    21    53    1
    55    22    25    1
    56    22    54    1
    57    23    55    1
    58    23    56    1
    59    23    57    1
    60    24    58    1
    61    25    59    1
    62    25    60    1
    63    26    29    1
    64    26    61    1
    65    26    62    1
    66    27    32    1
    67    27    63    1
    68    27    64    1
    69    29    32    1
    70    29    34    1
    71    29    35    1
    72    30    65    1
    73    30    66    1
    74    30    67    1
    75    31    68    1
    76    31    69    1
    77    31    70    1
    78    32    71    1
    79    32    72    1
    80    34    74    1
    81    34    78    1
    82    34    79    1
    83    35    75    1
    84    35    76    1
    85    35    77    1
