@<TRIPOS>MOLECULE
IMPHY009564
 92 91 0 0 0
SMALL
GASTEIGER

@<TRIPOS>ATOM
      1 O           8.0622   -1.0950    0.0000 O.3     1  UNL1       -0.3918
      2 O          22.7846    1.4050    0.0000 O.2     1  UNL1       -0.2974
      3 C          10.6603    0.4050    0.0000 C.3     1  UNL1       -0.0530
      4 C           9.7942   -0.0950    0.0000 C.3     1  UNL1       -0.0507
      5 C          11.5263   -0.0950    0.0000 C.3     1  UNL1       -0.0531
      6 C          12.3923    0.4050    0.0000 C.3     1  UNL1       -0.0531
      7 C           8.9282    0.4050    0.0000 C.3     1  UNL1       -0.0269
      8 C          13.2583   -0.0950    0.0000 C.3     1  UNL1       -0.0531
      9 C           8.0622   -0.0950    0.0000 C.3     1  UNL1        0.0553
     10 C          14.1244    0.4050    0.0000 C.3     1  UNL1       -0.0531
     11 C          14.9904   -0.0950    0.0000 C.3     1  UNL1       -0.0531
     12 C          15.8564    0.4050    0.0000 C.3     1  UNL1       -0.0531
     13 C           7.1962    0.4050    0.0000 C.3     1  UNL1       -0.0269
     14 C          16.7224   -0.0950    0.0000 C.3     1  UNL1       -0.0531
     15 C          17.5885    0.4050    0.0000 C.3     1  UNL1       -0.0531
     16 C           6.3301   -0.0950    0.0000 C.3     1  UNL1       -0.0507
     17 C          18.4545   -0.0950    0.0000 C.3     1  UNL1       -0.0531
     18 C           5.4641    0.4050    0.0000 C.3     1  UNL1       -0.0530
     19 C          19.3205    0.4050    0.0000 C.3     1  UNL1       -0.0530
     20 C          20.1865   -0.0950    0.0000 C.3     1  UNL1       -0.0527
     21 C           4.5981   -0.0950    0.0000 C.3     1  UNL1       -0.0531
     22 C          21.0526    0.4050    0.0000 C.3     1  UNL1       -0.0464
     23 C           3.7320    0.4050    0.0000 C.3     1  UNL1       -0.0533
     24 C          21.9186   -0.0950    0.0000 C.3     1  UNL1        0.0058
     25 C           2.8660   -0.0950    0.0000 C.3     1  UNL1       -0.0559
     26 C          22.7846    0.4050    0.0000 C.2     1  UNL1        0.1334
     27 C          23.6506   -0.0950    0.0000 C.3     1  UNL1        0.0058
     28 C          24.5167    0.4050    0.0000 C.3     1  UNL1       -0.0464
     29 C           2.0000    0.4050    0.0000 C.3     1  UNL1       -0.0653
     30 C          25.3827   -0.0950    0.0000 C.3     1  UNL1       -0.0529
     31 C          26.2487    0.4050    0.0000 C.3     1  UNL1       -0.0559
     32 C          27.1147   -0.0950    0.0000 C.3     1  UNL1       -0.0653
     33 H          11.0588    0.8799    0.0000 H       1  UNL1        0.0265
     34 H          10.2617    0.8799    0.0000 H       1  UNL1        0.0265
     35 H           9.3957   -0.5699    0.0000 H       1  UNL1        0.0266
     36 H          10.1928   -0.5699    0.0000 H       1  UNL1        0.0266
     37 H          11.1278   -0.5699    0.0000 H       1  UNL1        0.0265
     38 H          11.9248   -0.5699    0.0000 H       1  UNL1        0.0265
     39 H           9.3267    0.8799    0.0000 H       1  UNL1        0.0290
     40 H           8.5297    0.8799    0.0000 H       1  UNL1        0.0290
     41 H          12.7908    0.8799    0.0000 H       1  UNL1        0.0265
     42 H          11.9938    0.8799    0.0000 H       1  UNL1        0.0265
     43 H          12.8598   -0.5699    0.0000 H       1  UNL1        0.0265
     44 H          13.6569   -0.5699    0.0000 H       1  UNL1        0.0265
     45 H           7.5252   -0.4050    0.0000 H       1  UNL1        0.0593
     46 H          14.5229    0.8799    0.0000 H       1  UNL1        0.0265
     47 H          13.7258    0.8799    0.0000 H       1  UNL1        0.0265
     48 H          14.5919   -0.5699    0.0000 H       1  UNL1        0.0265
     49 H          15.3889   -0.5699    0.0000 H       1  UNL1        0.0265
     50 H          16.2549    0.8799    0.0000 H       1  UNL1        0.0265
     51 H          15.4579    0.8799    0.0000 H       1  UNL1        0.0265
     52 H           7.5947    0.8799    0.0000 H       1  UNL1        0.0290
     53 H           6.7976    0.8799    0.0000 H       1  UNL1        0.0290
     54 H          16.3239   -0.5699    0.0000 H       1  UNL1        0.0265
     55 H          17.1210   -0.5699    0.0000 H       1  UNL1        0.0265
     56 H          17.9870    0.8799    0.0000 H       1  UNL1        0.0265
     57 H          17.1899    0.8799    0.0000 H       1  UNL1        0.0265
     58 H           5.9316   -0.5699    0.0000 H       1  UNL1        0.0266
     59 H           6.7287   -0.5699    0.0000 H       1  UNL1        0.0266
     60 H          18.0560   -0.5699    0.0000 H       1  UNL1        0.0265
     61 H          18.8530   -0.5699    0.0000 H       1  UNL1        0.0265
     62 H           5.8626    0.8799    0.0000 H       1  UNL1        0.0265
     63 H           5.0656    0.8799    0.0000 H       1  UNL1        0.0265
     64 H          19.7190    0.8799    0.0000 H       1  UNL1        0.0265
     65 H          18.9220    0.8799    0.0000 H       1  UNL1        0.0265
     66 H          19.7880   -0.5699    0.0000 H       1  UNL1        0.0265
     67 H          20.5851   -0.5699    0.0000 H       1  UNL1        0.0265
     68 H           4.1996   -0.5699    0.0000 H       1  UNL1        0.0265
     69 H           4.9966   -0.5699    0.0000 H       1  UNL1        0.0265
     70 H          21.4511    0.8799    0.0000 H       1  UNL1        0.0269
     71 H          20.6540    0.8799    0.0000 H       1  UNL1        0.0269
     72 H           4.1306    0.8799    0.0000 H       1  UNL1        0.0265
     73 H           3.3335    0.8799    0.0000 H       1  UNL1        0.0265
     74 H          21.5201   -0.5699    0.0000 H       1  UNL1        0.0342
     75 H          22.3171   -0.5699    0.0000 H       1  UNL1        0.0342
     76 H           7.5252   -1.4050    0.0000 H       1  UNL1        0.2098
     77 H           2.4675   -0.5699    0.0000 H       1  UNL1        0.0263
     78 H           3.2646   -0.5699    0.0000 H       1  UNL1        0.0263
     79 H          23.2521   -0.5699    0.0000 H       1  UNL1        0.0342
     80 H          24.0492   -0.5699    0.0000 H       1  UNL1        0.0342
     81 H          24.9152    0.8799    0.0000 H       1  UNL1        0.0269
     82 H          24.1181    0.8799    0.0000 H       1  UNL1        0.0269
     83 H           2.3100    0.9419    0.0000 H       1  UNL1        0.0230
     84 H           1.4631    0.7150    0.0000 H       1  UNL1        0.0230
     85 H           1.6900   -0.1319    0.0000 H       1  UNL1        0.0230
     86 H          24.9842   -0.5699    0.0000 H       1  UNL1        0.0265
     87 H          25.7812   -0.5699    0.0000 H       1  UNL1        0.0265
     88 H          26.6472    0.8799    0.0000 H       1  UNL1        0.0263
     89 H          25.8502    0.8799    0.0000 H       1  UNL1        0.0263
     90 H          26.8047   -0.6319    0.0000 H       1  UNL1        0.0230
     91 H          27.6517   -0.4050    0.0000 H       1  UNL1        0.0230
     92 H          27.4247    0.4419    0.0000 H       1  UNL1        0.0230
@<TRIPOS>BOND
     1     1     9    1
     2     1    76    1
     3     2    26    2
     4     3     4    1
     5     3     5    1
     6     3    33    1
     7     3    34    1
     8     4     7    1
     9     4    35    1
    10     4    36    1
    11     5     6    1
    12     5    37    1
    13     5    38    1
    14     6     8    1
    15     6    41    1
    16     6    42    1
    17     7     9    1
    18     7    39    1
    19     7    40    1
    20     8    10    1
    21     8    43    1
    22     8    44    1
    23     9    13    1
    24     9    45    1
    25    10    11    1
    26    10    46    1
    27    10    47    1
    28    11    12    1
    29    11    48    1
    30    11    49    1
    31    12    14    1
    32    12    50    1
    33    12    51    1
    34    13    16    1
    35    13    52    1
    36    13    53    1
    37    14    15    1
    38    14    54    1
    39    14    55    1
    40    15    17    1
    41    15    56    1
    42    15    57    1
    43    16    18    1
    44    16    58    1
    45    16    59    1
    46    17    19    1
    47    17    60    1
    48    17    61    1
    49    18    21    1
    50    18    62    1
    51    18    63    1
    52    19    20    1
    53    19    64    1
    54    19    65    1
    55    20    22    1
    56    20    66    1
    57    20    67    1
    58    21    23    1
    59    21    68    1
    60    21    69    1
    61    22    24    1
    62    22    70    1
    63    22    71    1
    64    23    25    1
    65    23    72    1
    66    23    73    1
    67    24    26    1
    68    24    74    1
    69    24    75    1
    70    25    29    1
    71    25    77    1
    72    25    78    1
    73    26    27    1
    74    27    28    1
    75    27    79    1
    76    27    80    1
    77    28    30    1
    78    28    81    1
    79    28    82    1
    80    29    83    1
    81    29    84    1
    82    29    85    1
    83    30    31    1
    84    30    86    1
    85    30    87    1
    86    31    32    1
    87    31    88    1
    88    31    89    1
    89    32    90    1
    90    32    91    1
    91    32    92    1
