@<TRIPOS>MOLECULE
IMPHY006679
 142 149 0 0 0
SMALL
GASTEIGER

@<TRIPOS>ATOM
      1 O          11.5496   -0.3131    0.0000 O.3     1  UNL1       -0.3449
      2 O           4.5828    4.2597    0.0000 O.3     1  UNL1       -0.3832
      3 O           3.0808    2.4530    0.0000 O.3     1  UNL1       -0.3413
      4 O           2.9838    4.2323    0.0000 O.3     1  UNL1       -0.3647
      5 O          12.4157    1.1869    0.0000 O.3     1  UNL1       -0.3461
      6 O          13.2817   -1.3131    0.0000 O.3     1  UNL1       -0.3378
      7 O          15.0137   -0.3131    0.0000 O.3     1  UNL1       -0.3401
      8 O          15.0137    1.6869    0.0000 O.3     1  UNL1       -0.3868
      9 O          11.5496   -1.3131    0.0000 O.3     1  UNL1       -0.3431
     10 O          15.8798    1.1869    0.0000 O.3     1  UNL1       -0.3405
     11 O          13.2817   -3.3131    0.0000 O.3     1  UNL1       -0.3841
     12 O          16.7458   -1.3131    0.0000 O.3     1  UNL1       -0.3841
     13 O          11.5496   -4.3131    0.0000 O.3     1  UNL1       -0.3864
     14 O           9.8176   -3.3131    0.0000 O.3     1  UNL1       -0.3866
     15 O          18.4778   -0.3131    0.0000 O.3     1  UNL1       -0.3864
     16 O          18.4778    1.6869    0.0000 O.3     1  UNL1       -0.3865
     17 O          15.8798    3.1869    0.0000 O.3     1  UNL1       -0.3924
     18 C           7.9297    2.8174    0.0000 C.3     1  UNL1       -0.0231
     19 C           7.0617    3.3140    0.0000 C.3     1  UNL1       -0.0232
     20 C           7.9335    1.8174    0.0000 C.3     1  UNL1       -0.0294
     21 C           8.8295    1.2862    0.0000 C.3     1  UNL1       -0.0252
     22 C           6.1976    2.8107    0.0000 C.3     1  UNL1       -0.0295
     23 C           9.7336    1.8035    0.0000 C.3     1  UNL1       -0.0278
     24 C           5.4580    3.4750    0.0000 C.3     1  UNL1       -0.0039
     25 C           8.8215    3.3555    0.0000 C.3     1  UNL1       -0.0466
     26 C           7.0694    1.3141    0.0000 C.3     1  UNL1       -0.0489
     27 C           6.8488    4.2850    0.0000 C.3     1  UNL1       -0.0465
     28 C           6.2015    1.8107    0.0000 C.3     1  UNL1       -0.0491
     29 C           9.7296    2.8451    0.0000 C.3     1  UNL1       -0.0486
     30 C          10.6794    1.2719    0.0000 C.3     1  UNL1       -0.0052
     31 C           5.8596    4.3843    0.0000 C.3     1  UNL1       -0.0466
     32 C           8.8086    0.2014    0.0000 C.3     1  UNL1       -0.0447
     33 C           8.2680    3.7584    0.0000 C.3     1  UNL1       -0.0588
     34 C           7.7015    4.0826    0.0000 C.3     1  UNL1       -0.0588
     35 C           4.4803    3.2650    0.0000 C.3     1  UNL1        0.1221
     36 C           7.9616    0.7895    0.0000 C.3     1  UNL1       -0.0590
     37 C          10.6836    0.1869    0.0000 C.3     1  UNL1        0.0672
     38 C           9.7419   -0.3519    0.0000 C.3     1  UNL1       -0.0255
     39 C          11.1727    2.1418    0.0000 C.3     1  UNL1       -0.0572
     40 C          11.6794    1.2796    0.0000 C.3     1  UNL1       -0.0572
     41 C           4.6903    2.2873    0.0000 C.3     1  UNL1        0.0111
     42 C           3.4856    3.3674    0.0000 C.3     1  UNL1        0.1862
     43 C           3.8254    1.7854    0.0000 C.3     1  UNL1        0.0829
     44 C          12.4157    0.1869    0.0000 C.3     1  UNL1        0.1882
     45 C           3.7229    0.7907    0.0000 C.2     1  UNL1       -0.0567
     46 C          13.2817   -0.3131    0.0000 C.3     1  UNL1        0.1410
     47 C          14.1477    0.1869    0.0000 C.3     1  UNL1        0.1206
     48 C           2.8103    0.3820    0.0000 C.2     1  UNL1       -0.0772
     49 C          13.2817    1.6869    0.0000 C.3     1  UNL1        0.0792
     50 C          14.1477    1.1869    0.0000 C.3     1  UNL1        0.1073
     51 C           2.7078   -0.6127    0.0000 C.3     1  UNL1       -0.0440
     52 C           2.0000    0.9681    0.0000 C.3     1  UNL1       -0.0440
     53 C          12.4157   -1.8131    0.0000 C.3     1  UNL1        0.1884
     54 C          15.8798    0.1869    0.0000 C.3     1  UNL1        0.1884
     55 C          12.4157   -2.8131    0.0000 C.3     1  UNL1        0.1341
     56 C          16.7458   -0.3131    0.0000 C.3     1  UNL1        0.1341
     57 C          11.5496   -3.3131    0.0000 C.3     1  UNL1        0.1140
     58 C          10.6836   -1.8131    0.0000 C.3     1  UNL1        0.0873
     59 C          10.6836   -2.8131    0.0000 C.3     1  UNL1        0.1095
     60 C          17.6118    0.1869    0.0000 C.3     1  UNL1        0.1141
     61 C          16.7458    1.6869    0.0000 C.3     1  UNL1        0.1130
     62 C          17.6118    1.1869    0.0000 C.3     1  UNL1        0.1119
     63 C           9.8176   -1.3131    0.0000 C.3     1  UNL1       -0.0361
     64 C          16.7458    2.6869    0.0000 C.3     1  UNL1        0.0730
     65 H           8.6713    2.2396    0.0000 H       1  UNL1        0.0312
     66 H           5.4220    2.4630    0.0000 H       1  UNL1        0.0310
     67 H          10.4664    2.2342    0.0000 H       1  UNL1        0.0312
     68 H           4.9214    4.1342    0.0000 H       1  UNL1        0.0333
     69 H           9.2133    3.8360    0.0000 H       1  UNL1        0.0271
     70 H           8.4151    3.8237    0.0000 H       1  UNL1        0.0271
     71 H           6.6727    0.8376    0.0000 H       1  UNL1        0.0268
     72 H           7.4698    0.8407    0.0000 H       1  UNL1        0.0268
     73 H           7.4650    4.3535    0.0000 H       1  UNL1        0.0271
     74 H           6.8455    4.9050    0.0000 H       1  UNL1        0.0271
     75 H           5.5905    1.9160    0.0000 H       1  UNL1        0.0268
     76 H           5.9917    1.2273    0.0000 H       1  UNL1        0.0268
     77 H          10.3408    2.7414    0.0000 H       1  UNL1        0.0268
     78 H           9.9364    3.4296    0.0000 H       1  UNL1        0.0268
     79 H           5.9860    4.9913    0.0000 H       1  UNL1        0.0269
     80 H           5.2693    4.5738    0.0000 H       1  UNL1        0.0269
     81 H           8.1999    0.3192    0.0000 H       1  UNL1        0.0271
     82 H           8.5883   -0.3782    0.0000 H       1  UNL1        0.0271
     83 H           8.8515    3.5486    0.0000 H       1  UNL1        0.0235
     84 H           8.4778    4.3418    0.0000 H       1  UNL1        0.0235
     85 H           7.6846    3.9682    0.0000 H       1  UNL1        0.0235
     86 H           8.1780    3.6859    0.0000 H       1  UNL1        0.0235
     87 H           8.0982    4.5590    0.0000 H       1  UNL1        0.0235
     88 H           7.2251    4.4793    0.0000 H       1  UNL1        0.0235
     89 H           7.6536    1.3276    0.0000 H       1  UNL1        0.0235
     90 H           7.4234    0.4816    0.0000 H       1  UNL1        0.0235
     91 H           8.2695    0.2514    0.0000 H       1  UNL1        0.0235
     92 H          11.2199    0.4980    0.0000 H       1  UNL1        0.0602
     93 H           9.3391   -0.8233    0.0000 H       1  UNL1        0.0290
     94 H          10.1374   -0.8294    0.0000 H       1  UNL1        0.0290
     95 H          11.7120    1.8359    0.0000 H       1  UNL1        0.0236
     96 H          11.4786    2.6811    0.0000 H       1  UNL1        0.0236
     97 H          10.6334    2.4476    0.0000 H       1  UNL1        0.0236
     98 H          11.6842    0.6596    0.0000 H       1  UNL1        0.0236
     99 H          12.2994    1.2844    0.0000 H       1  UNL1        0.0236
    100 H          11.6746    1.8996    0.0000 H       1  UNL1        0.0236
    101 H           4.9437    1.7214    0.0000 H       1  UNL1        0.0323
    102 H           5.2796    2.4801    0.0000 H       1  UNL1        0.0323
    103 H           2.8665    3.3336    0.0000 H       1  UNL1        0.0938
    104 H           3.2470    1.5620    0.0000 H       1  UNL1        0.0642
    105 H           4.0804    4.6231    0.0000 H       1  UNL1        0.2104
    106 H          11.8787    0.4969    0.0000 H       1  UNL1        0.0937
    107 H           2.3638    4.2310    0.0000 H       1  UNL1        0.2126
    108 H           4.2253    0.4273    0.0000 H       1  UNL1        0.0597
    109 H          13.8186   -0.6231    0.0000 H       1  UNL1        0.0675
    110 H          14.6846    0.4969    0.0000 H       1  UNL1        0.0651
    111 H          13.6802    2.1619    0.0000 H       1  UNL1        0.0587
    112 H          12.8832    2.1619    0.0000 H       1  UNL1        0.0587
    113 H          14.1477    1.8069    0.0000 H       1  UNL1        0.0643
    114 H           2.0911   -0.5492    0.0000 H       1  UNL1        0.0274
    115 H           2.6444   -1.2295    0.0000 H       1  UNL1        0.0274
    116 H           3.3246   -0.6762    0.0000 H       1  UNL1        0.0274
    117 H           2.3634    1.4704    0.0000 H       1  UNL1        0.0274
    118 H           1.4976    1.3314    0.0000 H       1  UNL1        0.0274
    119 H           1.6366    0.4657    0.0000 H       1  UNL1        0.0274
    120 H          12.4157   -1.1931    0.0000 H       1  UNL1        0.0938
    121 H          15.0137    2.3069    0.0000 H       1  UNL1        0.2100
    122 H          15.3428    0.4969    0.0000 H       1  UNL1        0.0938
    123 H          12.4157   -3.4331    0.0000 H       1  UNL1        0.0671
    124 H          17.2827   -0.6231    0.0000 H       1  UNL1        0.0671
    125 H          11.0127   -3.6231    0.0000 H       1  UNL1        0.0648
    126 H          10.6836   -1.1931    0.0000 H       1  UNL1        0.0621
    127 H          10.1467   -2.5031    0.0000 H       1  UNL1        0.0646
    128 H          18.1488    0.4969    0.0000 H       1  UNL1        0.0648
    129 H          16.2089    1.9969    0.0000 H       1  UNL1        0.0647
    130 H          13.2817   -3.9331    0.0000 H       1  UNL1        0.2101
    131 H          17.6118    1.8069    0.0000 H       1  UNL1        0.0647
    132 H          10.1276   -0.7761    0.0000 H       1  UNL1        0.0255
    133 H           9.2806   -1.0031    0.0000 H       1  UNL1        0.0255
    134 H           9.5076   -1.8500    0.0000 H       1  UNL1        0.0255
    135 H          17.2827   -1.6231    0.0000 H       1  UNL1        0.2101
    136 H          11.0127   -4.6231    0.0000 H       1  UNL1        0.2100
    137 H           9.2806   -3.0031    0.0000 H       1  UNL1        0.2100
    138 H          17.3564    2.5793    0.0000 H       1  UNL1        0.0584
    139 H          16.9578    3.2696    0.0000 H       1  UNL1        0.0584
    140 H          19.0148   -0.0031    0.0000 H       1  UNL1        0.2100
    141 H          18.4778    2.3069    0.0000 H       1  UNL1        0.2100
    142 H          15.8798    3.8069    0.0000 H       1  UNL1        0.2095
@<TRIPOS>BOND
     1    37     1    1
     2    44     1    1
     3    35     2    1
     4     2   105    1
     5     3    42    1
     6     3    43    1
     7    42     4    1
     8     4   107    1
     9     5    44    1
    10     5    49    1
    11    46     6    1
    12    53     6    1
    13    47     7    1
    14    54     7    1
    15    50     8    1
    16     8   121    1
    17     9    53    1
    18     9    58    1
    19    10    54    1
    20    10    61    1
    21    55    11    1
    22    11   130    1
    23    56    12    1
    24    12   135    1
    25    57    13    1
    26    13   136    1
    27    59    14    1
    28    14   137    1
    29    60    15    1
    30    15   140    1
    31    62    16    1
    32    16   141    1
    33    17    64    1
    34    17   142    1
    35    18    19    1
    36    18    20    1
    37    18    25    1
    38    18    33    1
    39    19    22    1
    40    19    27    1
    41    19    34    1
    42    20    21    1
    43    20    26    1
    44    20    65    1
    45    21    23    1
    46    21    32    1
    47    21    36    1
    48    22    24    1
    49    22    28    1
    50    22    66    1
    51    23    29    1
    52    23    30    1
    53    23    67    1
    54    24    31    1
    55    24    35    1
    56    24    68    1
    57    25    29    1
    58    25    69    1
    59    25    70    1
    60    26    28    1
    61    26    71    1
    62    26    72    1
    63    27    31    1
    64    27    73    1
    65    27    74    1
    66    28    75    1
    67    28    76    1
    68    29    77    1
    69    29    78    1
    70    30    37    1
    71    30    39    1
    72    30    40    1
    73    31    79    1
    74    31    80    1
    75    32    38    1
    76    32    81    1
    77    32    82    1
    78    33    83    1
    79    33    84    1
    80    33    85    1
    81    34    86    1
    82    34    87    1
    83    34    88    1
    84    35    41    1
    85    35    42    1
    86    36    89    1
    87    36    90    1
    88    36    91    1
    89    37    38    1
    90    37    92    1
    91    38    93    1
    92    38    94    1
    93    39    95    1
    94    39    96    1
    95    39    97    1
    96    40    98    1
    97    40    99    1
    98    40   100    1
    99    41    43    1
   100    41   101    1
   101    41   102    1
   102    42   103    1
   103    43    45    1
   104    43   104    1
   105    44    46    1
   106    44   106    1
   107    45    48    2
   108    45   108    1
   109    46    47    1
   110    46   109    1
   111    47    50    1
   112    47   110    1
   113    48    51    1
   114    48    52    1
   115    49    50    1
   116    49   111    1
   117    49   112    1
   118    50   113    1
   119    51   114    1
   120    51   115    1
   121    51   116    1
   122    52   117    1
   123    52   118    1
   124    52   119    1
   125    53    55    1
   126    53   120    1
   127    54    56    1
   128    54   122    1
   129    55    57    1
   130    55   123    1
   131    56    60    1
   132    56   124    1
   133    57    59    1
   134    57   125    1
   135    58    59    1
   136    58    63    1
   137    58   126    1
   138    59   127    1
   139    60    62    1
   140    60   128    1
   141    61    62    1
   142    61    64    1
   143    61   129    1
   144    62   131    1
   145    63   132    1
   146    63   133    1
   147    63   134    1
   148    64   138    1
   149    64   139    1
