@<TRIPOS>MOLECULE
IMPHY008222
 111 116 0 0 0
SMALL
GASTEIGER

@<TRIPOS>ATOM
      1 O           9.5424    4.0576    0.0000 O.3     1  UNL1       -0.3910
      2 O           6.8671   -3.6946    0.0000 O.3     1  UNL1       -0.3448
      3 O           8.4192    5.9260    0.0000 O.3     1  UNL1       -0.3884
      4 O           6.8270    6.6988    0.0000 O.3     1  UNL1       -0.3887
      5 O           8.9636    5.5285    0.0000 O.3     1  UNL1       -0.4641
      6 O           9.3112   -3.0029    0.0000 O.3     1  UNL1       -0.3944
      7 O           5.1350   -3.6946    0.0000 O.3     1  UNL1       -0.3315
      8 O           6.8671   -5.6946    0.0000 O.3     1  UNL1       -0.3841
      9 O          10.5979    4.9550    0.0000 O.2     1  UNL1       -0.2512
     10 O           5.1350   -6.6946    0.0000 O.3     1  UNL1       -0.3864
     11 O           3.4030   -5.6946    0.0000 O.3     1  UNL1       -0.3860
     12 O           2.5369   -4.1946    0.0000 O.3     1  UNL1       -0.4788
     13 O           3.4030   -2.6946    0.0000 O.2     1  UNL1       -0.2480
     14 C           7.7681    1.0056    0.0000 C.3     1  UNL1       -0.0193
     15 C           6.9040    0.5023    0.0000 C.3     1  UNL1       -0.0257
     16 C           6.8920   -0.5393    0.0000 C.3     1  UNL1       -0.0249
     17 C           7.7643    2.0056    0.0000 C.3     1  UNL1       -0.0028
     18 C           7.7920   -1.0636    0.0000 C.3     1  UNL1       -0.0255
     19 C           8.6801    0.5023    0.0000 C.3     1  UNL1       -0.0463
     20 C           6.8963    2.5023    0.0000 C.2     1  UNL1       -0.0630
     21 C           6.8762    3.5437    0.0000 C.3     1  UNL1       -0.0052
     22 C           7.7722    4.0749    0.0000 C.3     1  UNL1        0.0655
     23 C           8.6921   -0.5393    0.0000 C.3     1  UNL1       -0.0485
     24 C           7.8046   -2.1485    0.0000 C.3     1  UNL1        0.0206
     25 C           8.6723    2.5160    0.0000 C.3     1  UNL1       -0.0165
     26 C           6.0361    0.9989    0.0000 C.3     1  UNL1       -0.0306
     27 C           5.9421   -1.0636    0.0000 C.3     1  UNL1       -0.0447
     28 C           8.6763    3.5576    0.0000 C.3     1  UNL1        0.0678
     29 C           8.7522    1.1831    0.0000 C.3     1  UNL1       -0.0585
     30 C           6.8671   -2.6946    0.0000 C.3     1  UNL1        0.0695
     31 C           6.0322    1.9989    0.0000 C.2     1  UNL1       -0.0836
     32 C           6.0279   -0.0359    0.0000 C.3     1  UNL1       -0.0590
     33 C           5.9295   -2.1485    0.0000 C.3     1  UNL1       -0.0254
     34 C           5.9223    4.0607    0.0000 C.3     1  UNL1       -0.0381
     35 C           8.7497    1.8358    0.0000 C.3     1  UNL1       -0.0552
     36 C           7.7764    5.1599    0.0000 C.3     1  UNL1        0.0932
     37 C           5.9014    5.1454    0.0000 C.3     1  UNL1       -0.0059
     38 C           6.8347    5.6988    0.0000 C.3     1  UNL1        0.0869
     39 C           8.6324    4.5849    0.0000 C.3     1  UNL1        0.1034
     40 C           8.8046   -2.1408    0.0000 C.3     1  UNL1        0.0522
     41 C           8.3113   -3.0106    0.0000 C.3     1  UNL1       -0.0548
     42 C           5.3881    6.0037    0.0000 C.3     1  UNL1       -0.0574
     43 C           4.9015    5.1300    0.0000 C.3     1  UNL1       -0.0574
     44 C           6.0010   -4.1946    0.0000 C.3     1  UNL1        0.1888
     45 C           6.0010   -5.1946    0.0000 C.3     1  UNL1        0.1341
     46 C           9.9463    5.7135    0.0000 C.2     1  UNL1        0.3040
     47 C           5.1350   -5.6946    0.0000 C.3     1  UNL1        0.1145
     48 C           4.2690   -4.1946    0.0000 C.3     1  UNL1        0.1859
     49 C           4.2690   -5.1946    0.0000 C.3     1  UNL1        0.1201
     50 C          10.2774    6.6571    0.0000 C.3     1  UNL1        0.0332
     51 C           3.4030   -3.6946    0.0000 C.2     1  UNL1        0.3367
     52 H           7.6385    0.0745    0.0000 H       1  UNL1        0.0315
     53 H           8.5314   -1.4829    0.0000 H       1  UNL1        0.0313
     54 H           9.2921    0.4033    0.0000 H       1  UNL1        0.0271
     55 H           8.8824    1.0884    0.0000 H       1  UNL1        0.0271
     56 H           6.1502    3.1018    0.0000 H       1  UNL1        0.0354
     57 H           8.9079   -1.1205    0.0000 H       1  UNL1        0.0268
     58 H           9.3017   -0.4261    0.0000 H       1  UNL1        0.0268
     59 H           8.8791    1.9315    0.0000 H       1  UNL1        0.0299
     60 H           9.2836    2.6197    0.0000 H       1  UNL1        0.0299
     61 H           5.4251    1.1042    0.0000 H       1  UNL1        0.0310
     62 H           5.8263    0.4155    0.0000 H       1  UNL1        0.0310
     63 H           5.7398   -0.4775    0.0000 H       1  UNL1        0.0271
     64 H           5.3300   -1.1626    0.0000 H       1  UNL1        0.0271
     65 H           9.2127    3.2466    0.0000 H       1  UNL1        0.0601
     66 H           8.8623    0.5729    0.0000 H       1  UNL1        0.0235
     67 H           9.3624    1.2931    0.0000 H       1  UNL1        0.0235
     68 H           8.6422    1.7932    0.0000 H       1  UNL1        0.0235
     69 H           7.4046   -3.0036    0.0000 H       1  UNL1        0.0603
     70 H           5.4941    2.3069    0.0000 H       1  UNL1        0.0572
     71 H           6.3400    0.4998    0.0000 H       1  UNL1        0.0235
     72 H           5.4922    0.2761    0.0000 H       1  UNL1        0.0235
     73 H           5.7158   -0.5717    0.0000 H       1  UNL1        0.0235
     74 H           5.3199   -2.0353    0.0000 H       1  UNL1        0.0290
     75 H           5.7137   -2.7297    0.0000 H       1  UNL1        0.0290
     76 H           5.3095    4.1550    0.0000 H       1  UNL1        0.0277
     77 H           5.7246    3.4730    0.0000 H       1  UNL1        0.0277
     78 H           8.6444    1.2248    0.0000 H       1  UNL1        0.0238
     79 H           9.3607    1.7304    0.0000 H       1  UNL1        0.0238
     80 H           8.8550    2.4468    0.0000 H       1  UNL1        0.0238
     81 H           8.3586    4.9467    0.0000 H       1  UNL1        0.0627
     82 H           7.3698    6.0119    0.0000 H       1  UNL1        0.0625
     83 H           8.7824    3.9833    0.0000 H       1  UNL1        0.0705
     84 H           9.2518    4.5560    0.0000 H       1  UNL1        0.0705
     85 H           9.3855   -1.9242    0.0000 H       1  UNL1        0.0563
     86 H           8.6922   -1.5310    0.0000 H       1  UNL1        0.0563
     87 H           7.7767   -3.3248    0.0000 H       1  UNL1        0.0237
     88 H           8.6254   -3.5452    0.0000 H       1  UNL1        0.0237
     89 H           8.8458   -2.6965    0.0000 H       1  UNL1        0.0237
     90 H          10.0793    3.7476    0.0000 H       1  UNL1        0.2098
     91 H           4.8920    5.7500    0.0000 H       1  UNL1        0.0236
     92 H           4.2816    5.1205    0.0000 H       1  UNL1        0.0236
     93 H           4.9111    4.5101    0.0000 H       1  UNL1        0.0236
     94 H           5.9202    6.3219    0.0000 H       1  UNL1        0.0236
     95 H           5.0699    6.5358    0.0000 H       1  UNL1        0.0236
     96 H           4.8560    5.6854    0.0000 H       1  UNL1        0.0236
     97 H           8.2072    6.5086    0.0000 H       1  UNL1        0.2099
     98 H           6.2877    7.0046    0.0000 H       1  UNL1        0.2099
     99 H           6.0010   -3.5746    0.0000 H       1  UNL1        0.0938
    100 H           9.9312   -2.9981    0.0000 H       1  UNL1        0.2094
    101 H           6.0010   -5.8146    0.0000 H       1  UNL1        0.0671
    102 H           4.5981   -6.0046    0.0000 H       1  UNL1        0.0648
    103 H           4.2690   -3.5746    0.0000 H       1  UNL1        0.0741
    104 H           3.7320   -4.8846    0.0000 H       1  UNL1        0.0652
    105 H          10.8625    6.4518    0.0000 H       1  UNL1        0.0342
    106 H          10.4827    7.2421    0.0000 H       1  UNL1        0.0342
    107 H           9.6924    6.8624    0.0000 H       1  UNL1        0.0342
    108 H           7.4040   -5.3846    0.0000 H       1  UNL1        0.2101
    109 H           5.6720   -7.0046    0.0000 H       1  UNL1        0.2100
    110 H           3.4030   -6.3146    0.0000 H       1  UNL1        0.2100
    111 H           2.0000   -3.8846    0.0000 H       1  UNL1        0.2951
@<TRIPOS>BOND
     1    28     1    1
     2     1    90    1
     3    30     2    1
     4    44     2    1
     5    36     3    1
     6     3    97    1
     7    38     4    1
     8     4    98    1
     9     5    39    1
    10     5    46    1
    11     6    40    1
    12     6   100    1
    13     7    44    1
    14     7    48    1
    15    45     8    1
    16     8   108    1
    17     9    46    2
    18    47    10    1
    19    10   109    1
    20    49    11    1
    21    11   110    1
    22    12    51    1
    23    12   111    1
    24    13    51    2
    25    14    15    1
    26    14    17    1
    27    14    19    1
    28    14    29    1
    29    15    16    1
    30    15    26    1
    31    15    52    1
    32    16    18    1
    33    16    27    1
    34    16    32    1
    35    17    20    1
    36    17    25    1
    37    17    35    1
    38    18    23    1
    39    18    24    1
    40    18    53    1
    41    19    23    1
    42    19    54    1
    43    19    55    1
    44    20    21    1
    45    20    31    2
    46    21    22    1
    47    21    34    1
    48    21    56    1
    49    22    28    1
    50    22    36    1
    51    22    39    1
    52    23    57    1
    53    23    58    1
    54    24    30    1
    55    24    40    1
    56    24    41    1
    57    25    28    1
    58    25    59    1
    59    25    60    1
    60    26    31    1
    61    26    61    1
    62    26    62    1
    63    27    33    1
    64    27    63    1
    65    27    64    1
    66    28    65    1
    67    29    66    1
    68    29    67    1
    69    29    68    1
    70    30    33    1
    71    30    69    1
    72    31    70    1
    73    32    71    1
    74    32    72    1
    75    32    73    1
    76    33    74    1
    77    33    75    1
    78    34    37    1
    79    34    76    1
    80    34    77    1
    81    35    78    1
    82    35    79    1
    83    35    80    1
    84    36    38    1
    85    36    81    1
    86    37    38    1
    87    37    42    1
    88    37    43    1
    89    38    82    1
    90    39    83    1
    91    39    84    1
    92    40    85    1
    93    40    86    1
    94    41    87    1
    95    41    88    1
    96    41    89    1
    97    42    94    1
    98    42    95    1
    99    42    96    1
   100    43    91    1
   101    43    92    1
   102    43    93    1
   103    44    45    1
   104    44    99    1
   105    45    47    1
   106    45   101    1
   107    46    50    1
   108    47    49    1
   109    47   102    1
   110    48    49    1
   111    48    51    1
   112    48   103    1
   113    49   104    1
   114    50   105    1
   115    50   106    1
   116    50   107    1
