@<TRIPOS>MOLECULE
IMPHY017922
 10 9 0 0 0
SMALL
GASTEIGER

@<TRIPOS>ATOM
      1 C           1.1687   -0.6593    0.0000 C.2     1  UNL1        0.3176
      2 O           1.1687   -2.0077    0.0000 O.2     1  UNL1       -0.2501
      3 O           2.3074    0.0000    0.0000 O.3     1  UNL1       -0.4485
      4 C           0.0000    0.0000    0.0000 C.3     1  UNL1        0.1212
      5 C           3.4461   -0.6593    0.0000 C.3     1  UNL1        0.2088
      6 C           3.4761   -2.0077    0.0000 C.3     1  UNL1        0.0521
      7 C           4.6148   -2.6370    0.0000 C.3     1  UNL1        0.0295
      8 C           4.6447   -3.9855    0.0000 C.2     1  UNL1       -0.0306
      9 C           5.7834   -4.6747    0.0000 C.2     1  UNL1       -0.0304
     10 C           5.7834   -5.9932    0.0000 C.3     1  UNL1        0.0303
@<TRIPOS>BOND
     1     1     2    2
     2     1     3    1
     3     1     4    1
     4     3     5    1
     5     5     6    1
     6     6     7    1
     7     7     8    1
     8     8     9    2
     9     9    10    1
