@<TRIPOS>MOLECULE
IMPHY013622
 201 211 0 0 0
SMALL
GASTEIGER

@<TRIPOS>ATOM
      1 O          19.1610    2.0726    0.0000 O.3     1  UNL1       -0.3915
      2 O          20.1189   -1.5922    0.0000 O.3     1  UNL1       -0.3423
      3 O          15.3858    4.3668    0.0000 O.3     1  UNL1       -0.3906
      4 O          18.3035   -2.6311    0.0000 O.3     1  UNL1       -0.3892
      5 O          20.7420    0.8703    0.0000 O.3     1  UNL1       -0.3944
      6 O          14.6916    4.5863    0.0000 O.3     1  UNL1       -0.4318
      7 O          12.9596    4.5663    0.0000 O.2     1  UNL1       -0.2500
      8 O          19.2529   -3.0922    0.0000 O.3     1  UNL1       -0.3405
      9 O          21.8510   -2.5922    0.0000 O.3     1  UNL1       -0.3841
     10 O          15.5402    6.0963    0.0000 O.3     1  UNL1       -0.3368
     11 O          21.8510   -4.5922    0.0000 O.3     1  UNL1       -0.3864
     12 O          12.9481    5.5662    0.0000 O.3     1  UNL1       -0.3366
     13 O          20.1189   -5.5922    0.0000 O.3     1  UNL1       -0.3865
     14 O          18.3869   -5.5922    0.0000 O.3     1  UNL1       -0.3460
     15 O          12.9249    7.5661    0.0000 O.3     1  UNL1       -0.3864
     16 O          14.6453    8.5861    0.0000 O.3     1  UNL1       -0.3869
     17 O          12.0647    7.0561    0.0000 O.3     1  UNL1       -0.3431
     18 O          16.6548   -5.5922    0.0000 O.3     1  UNL1       -0.3405
     19 O          11.2277    4.5463    0.0000 O.3     1  UNL1       -0.3841
     20 O           9.4842    5.5262    0.0000 O.3     1  UNL1       -0.3864
     21 O           9.4610    7.5260    0.0000 O.3     1  UNL1       -0.3402
     22 O          18.3869   -7.5922    0.0000 O.3     1  UNL1       -0.3841
     23 O          16.6548   -8.5922    0.0000 O.3     1  UNL1       -0.3864
     24 O          14.9228   -7.5922    0.0000 O.3     1  UNL1       -0.3865
     25 O          14.9228   -4.5922    0.0000 O.3     1  UNL1       -0.3924
     26 O           8.6124    6.0161    0.0000 O.3     1  UNL1       -0.3461
     27 O           7.7176    8.5060    0.0000 O.3     1  UNL1       -0.3841
     28 O           5.9972    7.4860    0.0000 O.3     1  UNL1       -0.3401
     29 O           6.0203    5.4861    0.0000 O.3     1  UNL1       -0.3868
     30 O           5.1486    5.9761    0.0000 O.3     1  UNL1       -0.3431
     31 O           4.2537    8.4659    0.0000 O.3     1  UNL1       -0.3841
     32 O           2.5333    7.4459    0.0000 O.3     1  UNL1       -0.3864
     33 O           2.5564    5.4461    0.0000 O.3     1  UNL1       -0.3866
     34 C          16.4990    1.5382    0.0000 C.3     1  UNL1       -0.0170
     35 C          17.3988    0.0070    0.0000 C.3     1  UNL1       -0.0202
     36 C          16.5028    0.5382    0.0000 C.3     1  UNL1       -0.0255
     37 C          15.6310    2.0349    0.0000 C.3     1  UNL1       -0.0027
     38 C          18.3029    0.5243    0.0000 C.3     1  UNL1        0.0007
     39 C          17.3908    2.0763    0.0000 C.3     1  UNL1       -0.0201
     40 C          18.2989    1.5660    0.0000 C.3     1  UNL1        0.0597
     41 C          19.2487   -0.0073    0.0000 C.3     1  UNL1        0.0254
     42 C          14.7669    1.5315    0.0000 C.2     1  UNL1       -0.0627
     43 C          17.3779   -1.0778    0.0000 C.3     1  UNL1       -0.0183
     44 C          15.6387    0.0349    0.0000 C.3     1  UNL1       -0.0306
     45 C          13.8550    2.0349    0.0000 C.3     1  UNL1       -0.0007
     46 C          15.6431    3.0764    0.0000 C.3     1  UNL1       -0.0162
     47 C          13.8429    3.0764    0.0000 C.3     1  UNL1        0.1000
     48 C          19.2529   -1.0922    0.0000 C.3     1  UNL1        0.0954
     49 C          16.8374    2.4792    0.0000 C.3     1  UNL1       -0.0584
     50 C          14.7430    3.6007    0.0000 C.3     1  UNL1        0.0723
     51 C          18.3112   -1.6311    0.0000 C.3     1  UNL1        0.0825
     52 C          16.5309   -0.4897    0.0000 C.3     1  UNL1       -0.0588
     53 C          14.7708    0.5315    0.0000 C.2     1  UNL1       -0.0836
     54 C          16.2708    2.8034    0.0000 C.3     1  UNL1       -0.0552
     55 C          12.9303    1.4672    0.0000 C.3     1  UNL1       -0.0402
     56 C          12.9054    3.6225    0.0000 C.3     1  UNL1       -0.0338
     57 C          11.9804    1.9915    0.0000 C.3     1  UNL1       -0.0343
     58 C          19.7420    0.8626    0.0000 C.3     1  UNL1        0.0524
     59 C          20.2487    0.0004    0.0000 C.3     1  UNL1       -0.0547
     60 C          11.9679    3.0764    0.0000 C.3     1  UNL1       -0.0467
     61 C          13.8314    4.0764    0.0000 C.2     1  UNL1        0.3186
     62 C          10.9805    1.9761    0.0000 C.3     1  UNL1       -0.0598
     63 C          11.4938    1.1179    0.0000 C.3     1  UNL1       -0.0598
     64 C          20.1189   -2.5922    0.0000 C.3     1  UNL1        0.1883
     65 C          20.9850   -3.0922    0.0000 C.3     1  UNL1        0.1341
     66 C          14.6800    5.5863    0.0000 C.3     1  UNL1        0.2338
     67 C          20.9850   -4.0922    0.0000 C.3     1  UNL1        0.1141
     68 C          19.2529   -4.0922    0.0000 C.3     1  UNL1        0.1134
     69 C          20.1189   -4.5922    0.0000 C.3     1  UNL1        0.1119
     70 C          13.8082    6.0762    0.0000 C.3     1  UNL1        0.1520
     71 C          13.7967    7.0762    0.0000 C.3     1  UNL1        0.1152
     72 C          18.3869   -4.5922    0.0000 C.3     1  UNL1        0.0796
     73 C          15.5286    7.0962    0.0000 C.3     1  UNL1        0.0802
     74 C          14.6569    7.5861    0.0000 C.3     1  UNL1        0.1070
     75 C          12.0763    6.0562    0.0000 C.3     1  UNL1        0.1885
     76 C          17.5209   -6.0922    0.0000 C.3     1  UNL1        0.1880
     77 C          11.2161    5.5462    0.0000 C.3     1  UNL1        0.1341
     78 C          10.3444    6.0362    0.0000 C.3     1  UNL1        0.1143
     79 C          17.5209   -7.0922    0.0000 C.3     1  UNL1        0.1341
     80 C          11.1930    7.5461    0.0000 C.3     1  UNL1        0.0877
     81 C          10.3328    7.0361    0.0000 C.3     1  UNL1        0.1160
     82 C          16.6548   -7.5922    0.0000 C.3     1  UNL1        0.1141
     83 C          15.7888   -6.0922    0.0000 C.3     1  UNL1        0.1130
     84 C          15.7888   -7.0922    0.0000 C.3     1  UNL1        0.1119
     85 C          11.1814    8.5460    0.0000 C.3     1  UNL1       -0.0361
     86 C          14.9228   -5.5922    0.0000 C.3     1  UNL1        0.0730
     87 C           8.6009    7.0161    0.0000 C.3     1  UNL1        0.1880
     88 C           7.7291    7.5060    0.0000 C.3     1  UNL1        0.1345
     89 C           6.8689    6.9960    0.0000 C.3     1  UNL1        0.1202
     90 C           7.7522    5.5062    0.0000 C.3     1  UNL1        0.0792
     91 C           6.8805    5.9961    0.0000 C.3     1  UNL1        0.1073
     92 C           5.1370    6.9760    0.0000 C.3     1  UNL1        0.1883
     93 C           4.2652    7.4660    0.0000 C.3     1  UNL1        0.1341
     94 C           3.4051    6.9560    0.0000 C.3     1  UNL1        0.1140
     95 C           4.2884    5.4661    0.0000 C.3     1  UNL1        0.0873
     96 C           3.4166    5.9560    0.0000 C.3     1  UNL1        0.1095
     97 C           4.2999    4.4662    0.0000 C.3     1  UNL1       -0.0361
     98 H          17.2406    0.9604    0.0000 H       1  UNL1        0.0315
     99 H          19.0357    0.9550    0.0000 H       1  UNL1        0.0338
    100 H          17.7826    2.5568    0.0000 H       1  UNL1        0.0296
    101 H          16.9844    2.5445    0.0000 H       1  UNL1        0.0296
    102 H          18.8376    1.2591    0.0000 H       1  UNL1        0.0596
    103 H          16.7692   -0.9600    0.0000 H       1  UNL1        0.0296
    104 H          17.1576   -1.6574    0.0000 H       1  UNL1        0.0296
    105 H          15.2420   -0.4416    0.0000 H       1  UNL1        0.0310
    106 H          16.0391   -0.4385    0.0000 H       1  UNL1        0.0310
    107 H          13.8746    1.1851    0.0000 H       1  UNL1        0.0357
    108 H          16.2526    2.9633    0.0000 H       1  UNL1        0.0299
    109 H          15.8588    3.6576    0.0000 H       1  UNL1        0.0299
    110 H          19.7893   -0.7812    0.0000 H       1  UNL1        0.0629
    111 H          17.4208    2.2694    0.0000 H       1  UNL1        0.0235
    112 H          17.0472    3.0626    0.0000 H       1  UNL1        0.0235
    113 H          16.2539    2.6890    0.0000 H       1  UNL1        0.0235
    114 H          14.3435    4.0749    0.0000 H       1  UNL1        0.0605
    115 H          18.8463   -1.9442    0.0000 H       1  UNL1        0.0619
    116 H          16.2229    0.0485    0.0000 H       1  UNL1        0.0235
    117 H          15.9927   -0.7976    0.0000 H       1  UNL1        0.0235
    118 H          16.8388   -1.0278    0.0000 H       1  UNL1        0.0235
    119 H          14.2350    0.2195    0.0000 H       1  UNL1        0.0572
    120 H          16.7473    2.4067    0.0000 H       1  UNL1        0.0238
    121 H          16.6675    3.2798    0.0000 H       1  UNL1        0.0238
    122 H          15.7944    3.2001    0.0000 H       1  UNL1        0.0238
    123 H          12.5423    0.9837    0.0000 H       1  UNL1        0.0276
    124 H          13.3403    1.0021    0.0000 H       1  UNL1        0.0276
    125 H          13.3045    4.0970    0.0000 H       1  UNL1        0.0277
    126 H          12.5063    4.0970    0.0000 H       1  UNL1        0.0277
    127 H          19.8450    1.4740    0.0000 H       1  UNL1        0.0563
    128 H          19.1578    1.0701    0.0000 H       1  UNL1        0.0563
    129 H          20.2535   -0.6195    0.0000 H       1  UNL1        0.0237
    130 H          20.8687    0.0052    0.0000 H       1  UNL1        0.0237
    131 H          20.2439    0.6204    0.0000 H       1  UNL1        0.0237
    132 H          11.7521    3.6576    0.0000 H       1  UNL1        0.0271
    133 H          11.3583    2.9633    0.0000 H       1  UNL1        0.0271
    134 H          19.1562    2.6926    0.0000 H       1  UNL1        0.2098
    135 H          15.9964    4.2591    0.0000 H       1  UNL1        0.2098
    136 H          17.7642   -2.9370    0.0000 H       1  UNL1        0.2099
    137 H          10.9710    2.5960    0.0000 H       1  UNL1        0.0235
    138 H          10.3606    1.9665    0.0000 H       1  UNL1        0.0235
    139 H          10.9901    1.3562    0.0000 H       1  UNL1        0.0235
    140 H          10.9522    1.4196    0.0000 H       1  UNL1        0.0235
    141 H          11.1921    0.5762    0.0000 H       1  UNL1        0.0235
    142 H          12.0355    0.8162    0.0000 H       1  UNL1        0.0235
    143 H          20.6559   -2.2822    0.0000 H       1  UNL1        0.0938
    144 H          21.0479    1.4096    0.0000 H       1  UNL1        0.2094
    145 H          21.5219   -3.4022    0.0000 H       1  UNL1        0.0671
    146 H          14.1467    5.2701    0.0000 H       1  UNL1        0.1085
    147 H          20.9850   -4.7122    0.0000 H       1  UNL1        0.0648
    148 H          18.7160   -3.7822    0.0000 H       1  UNL1        0.0647
    149 H          20.6559   -4.9023    0.0000 H       1  UNL1        0.0647
    150 H          13.2678    6.3800    0.0000 H       1  UNL1        0.0687
    151 H          21.8510   -1.9722    0.0000 H       1  UNL1        0.2101
    152 H          13.7895    7.6961    0.0000 H       1  UNL1        0.0648
    153 H          18.1748   -4.0096    0.0000 H       1  UNL1        0.0587
    154 H          17.7763   -4.6999    0.0000 H       1  UNL1        0.0587
    155 H          16.1404    6.9956    0.0000 H       1  UNL1        0.0588
    156 H          15.7339    7.6812    0.0000 H       1  UNL1        0.0588
    157 H          15.1902    7.9023    0.0000 H       1  UNL1        0.0643
    158 H          22.3879   -4.2822    0.0000 H       1  UNL1        0.2100
    159 H          20.6559   -5.9023    0.0000 H       1  UNL1        0.2100
    160 H          12.0835    5.4362    0.0000 H       1  UNL1        0.0938
    161 H          12.9178    8.1861    0.0000 H       1  UNL1        0.2100
    162 H          15.1786    8.9022    0.0000 H       1  UNL1        0.2100
    163 H          18.0578   -6.4023    0.0000 H       1  UNL1        0.0937
    164 H          10.6828    5.2300    0.0000 H       1  UNL1        0.0671
    165 H           9.8039    6.3399    0.0000 H       1  UNL1        0.0648
    166 H          17.5209   -7.7122    0.0000 H       1  UNL1        0.0671
    167 H          11.7263    7.8623    0.0000 H       1  UNL1        0.0621
    168 H          10.3256    7.6560    0.0000 H       1  UNL1        0.0650
    169 H          16.1179   -7.9022    0.0000 H       1  UNL1        0.0648
    170 H          10.6944    4.2301    0.0000 H       1  UNL1        0.2101
    171 H          15.7888   -5.4722    0.0000 H       1  UNL1        0.0647
    172 H          15.7888   -7.7122    0.0000 H       1  UNL1        0.0647
    173 H          11.8014    8.5532    0.0000 H       1  UNL1        0.0255
    174 H          11.1743    9.1660    0.0000 H       1  UNL1        0.0255
    175 H          10.5615    8.5388    0.0000 H       1  UNL1        0.0255
    176 H           9.4914    4.9062    0.0000 H       1  UNL1        0.2100
    177 H          18.9238   -7.2822    0.0000 H       1  UNL1        0.2101
    178 H          14.3122   -5.4846    0.0000 H       1  UNL1        0.0584
    179 H          14.7107   -6.1749    0.0000 H       1  UNL1        0.0584
    180 H          16.1179   -8.9022    0.0000 H       1  UNL1        0.2100
    181 H           8.5937    7.6360    0.0000 H       1  UNL1        0.0937
    182 H          14.3859   -7.2822    0.0000 H       1  UNL1        0.2100
    183 H           7.1886    7.8098    0.0000 H       1  UNL1        0.0671
    184 H          14.3859   -4.2822    0.0000 H       1  UNL1        0.2095
    185 H           6.8618    7.6160    0.0000 H       1  UNL1        0.0651
    186 H           7.3592    5.0266    0.0000 H       1  UNL1        0.0587
    187 H           8.1562    5.0358    0.0000 H       1  UNL1        0.0587
    188 H           6.8877    5.3762    0.0000 H       1  UNL1        0.0643
    189 H           7.1771    8.8097    0.0000 H       1  UNL1        0.2101
    190 H           6.0275    4.8662    0.0000 H       1  UNL1        0.2100
    191 H           5.1298    7.5960    0.0000 H       1  UNL1        0.0938
    192 H           3.7248    7.7697    0.0000 H       1  UNL1        0.0671
    193 H           2.8718    6.6398    0.0000 H       1  UNL1        0.0648
    194 H           4.8289    5.1623    0.0000 H       1  UNL1        0.0621
    195 H           3.4238    5.3361    0.0000 H       1  UNL1        0.0646
    196 H           3.7132    8.7697    0.0000 H       1  UNL1        0.2101
    197 H           3.6800    4.4590    0.0000 H       1  UNL1        0.0255
    198 H           4.3071    3.8462    0.0000 H       1  UNL1        0.0255
    199 H           4.9199    4.4733    0.0000 H       1  UNL1        0.0255
    200 H           2.0000    7.1298    0.0000 H       1  UNL1        0.2100
    201 H           2.5636    4.8261    0.0000 H       1  UNL1        0.2100
@<TRIPOS>BOND
     1    40     1    1
     2     1   134    1
     3    48     2    1
     4    64     2    1
     5    50     3    1
     6     3   135    1
     7    51     4    1
     8     4   136    1
     9     5    58    1
    10     5   144    1
    11     6    61    1
    12    66     6    1
    13     7    61    2
    14     8    64    1
    15     8    68    1
    16    65     9    1
    17     9   151    1
    18    10    66    1
    19    10    73    1
    20    67    11    1
    21    11   158    1
    22    70    12    1
    23    75    12    1
    24    69    13    1
    25    13   159    1
    26    14    72    1
    27    76    14    1
    28    71    15    1
    29    15   161    1
    30    74    16    1
    31    16   162    1
    32    17    75    1
    33    17    80    1
    34    18    76    1
    35    18    83    1
    36    77    19    1
    37    19   170    1
    38    78    20    1
    39    20   176    1
    40    81    21    1
    41    87    21    1
    42    79    22    1
    43    22   177    1
    44    82    23    1
    45    23   180    1
    46    84    24    1
    47    24   182    1
    48    25    86    1
    49    25   184    1
    50    26    87    1
    51    26    90    1
    52    88    27    1
    53    27   189    1
    54    89    28    1
    55    92    28    1
    56    91    29    1
    57    29   190    1
    58    30    92    1
    59    30    95    1
    60    93    31    1
    61    31   196    1
    62    94    32    1
    63    32   200    1
    64    96    33    1
    65    33   201    1
    66    34    36    1
    67    34    37    1
    68    34    39    1
    69    34    49    1
    70    35    36    1
    71    35    38    1
    72    35    43    1
    73    35    52    1
    74    36    44    1
    75    36    98    1
    76    37    42    1
    77    37    46    1
    78    37    54    1
    79    38    40    1
    80    38    41    1
    81    38    99    1
    82    39    40    1
    83    39   100    1
    84    39   101    1
    85    40   102    1
    86    41    48    1
    87    41    58    1
    88    41    59    1
    89    42    45    1
    90    42    53    2
    91    43    51    1
    92    43   103    1
    93    43   104    1
    94    44    53    1
    95    44   105    1
    96    44   106    1
    97    45    47    1
    98    45    55    1
    99    45   107    1
   100    46    50    1
   101    46   108    1
   102    46   109    1
   103    47    50    1
   104    47    56    1
   105    47    61    1
   106    48    51    1
   107    48   110    1
   108    49   111    1
   109    49   112    1
   110    49   113    1
   111    50   114    1
   112    51   115    1
   113    52   116    1
   114    52   117    1
   115    52   118    1
   116    53   119    1
   117    54   120    1
   118    54   121    1
   119    54   122    1
   120    55    57    1
   121    55   123    1
   122    55   124    1
   123    56    60    1
   124    56   125    1
   125    56   126    1
   126    57    60    1
   127    57    62    1
   128    57    63    1
   129    58   127    1
   130    58   128    1
   131    59   129    1
   132    59   130    1
   133    59   131    1
   134    60   132    1
   135    60   133    1
   136    62   137    1
   137    62   138    1
   138    62   139    1
   139    63   140    1
   140    63   141    1
   141    63   142    1
   142    64    65    1
   143    64   143    1
   144    65    67    1
   145    65   145    1
   146    66    70    1
   147    66   146    1
   148    67    69    1
   149    67   147    1
   150    68    69    1
   151    68    72    1
   152    68   148    1
   153    69   149    1
   154    70    71    1
   155    70   150    1
   156    71    74    1
   157    71   152    1
   158    72   153    1
   159    72   154    1
   160    73    74    1
   161    73   155    1
   162    73   156    1
   163    74   157    1
   164    75    77    1
   165    75   160    1
   166    76    79    1
   167    76   163    1
   168    77    78    1
   169    77   164    1
   170    78    81    1
   171    78   165    1
   172    79    82    1
   173    79   166    1
   174    80    81    1
   175    80    85    1
   176    80   167    1
   177    81   168    1
   178    82    84    1
   179    82   169    1
   180    83    84    1
   181    83    86    1
   182    83   171    1
   183    84   172    1
   184    85   173    1
   185    85   174    1
   186    85   175    1
   187    86   178    1
   188    86   179    1
   189    87    88    1
   190    87   181    1
   191    88    89    1
   192    88   183    1
   193    89    91    1
   194    89   185    1
   195    90    91    1
   196    90   186    1
   197    90   187    1
   198    91   188    1
   199    92    93    1
   200    92   191    1
   201    93    94    1
   202    93   192    1
   203    94    96    1
   204    94   193    1
   205    95    96    1
   206    95    97    1
   207    95   194    1
   208    96   195    1
   209    97   197    1
   210    97   198    1
   211    97   199    1
