@<TRIPOS>MOLECULE
IMPHY000754
 59 61 0 0 0
SMALL
GASTEIGER

@<TRIPOS>ATOM
      1 O           8.0901   -0.6117    0.0000 O.3     1  UNL1       -0.4897
      2 O           8.0785    2.4575    0.0000 O.2     1  UNL1       -0.2910
      3 O           6.3301    2.4229    0.0000 O.3     1  UNL1       -0.5055
      4 O           4.5981   -0.5771    0.0000 O.3     1  UNL1       -0.5060
      5 O          12.4602    0.9571    0.0000 O.3     1  UNL1       -0.5033
      6 O          12.4525    2.9571    0.0000 O.3     1  UNL1       -0.5033
      7 C           8.9962    0.9437    0.0000 C.3     1  UNL1        0.0815
      8 C           7.1962    0.9229    0.0000 C.ar    1  UNL1        0.1018
      9 C           7.1962   -0.0771    0.0000 C.ar    1  UNL1        0.1415
     10 C           8.9962   -0.0979    0.0000 C.3     1  UNL1        0.1035
     11 C           8.0901    1.4576    0.0000 C.2     1  UNL1        0.1808
     12 C           6.3301   -0.5771    0.0000 C.ar    1  UNL1        0.0405
     13 C           5.4641    0.9229    0.0000 C.ar    1  UNL1        0.0403
     14 C           6.3301    1.4229    0.0000 C.ar    1  UNL1        0.1378
     15 C           9.8602    1.4471    0.0000 C.ar    1  UNL1       -0.0299
     16 C           5.4641   -0.0771    0.0000 C.ar    1  UNL1        0.1308
     17 C           6.3301   -1.5771    0.0000 C.3     1  UNL1       -0.0023
     18 C           4.5981    1.4229    0.0000 C.3     1  UNL1       -0.0023
     19 C          10.7282    0.9504    0.0000 C.ar    1  UNL1       -0.0126
     20 C           9.8564    2.4471    0.0000 C.ar    1  UNL1       -0.0541
     21 C           5.4641   -2.0771    0.0000 C.2     1  UNL1       -0.0807
     22 C           3.7320    0.9229    0.0000 C.2     1  UNL1       -0.0807
     23 C          11.5923    1.4538    0.0000 C.ar    1  UNL1        0.1585
     24 C          10.7205    2.9504    0.0000 C.ar    1  UNL1       -0.0163
     25 C          11.5884    2.4537    0.0000 C.ar    1  UNL1        0.1582
     26 C           5.4641   -3.0771    0.0000 C.2     1  UNL1       -0.0793
     27 C           2.8660    1.4229    0.0000 C.2     1  UNL1       -0.0793
     28 C           4.5981   -3.5771    0.0000 C.3     1  UNL1       -0.0440
     29 C           6.3301   -3.5771    0.0000 C.3     1  UNL1       -0.0440
     30 C           2.0000    0.9229    0.0000 C.3     1  UNL1       -0.0440
     31 C           2.8660    2.4229    0.0000 C.3     1  UNL1       -0.0440
     32 H           8.9926    1.5637    0.0000 H       1  UNL1        0.0463
     33 H           9.2052   -0.6816    0.0000 H       1  UNL1        0.0707
     34 H           9.6070    0.0082    0.0000 H       1  UNL1        0.0707
     35 H           6.5422   -2.1597    0.0000 H       1  UNL1        0.0358
     36 H           6.9407   -1.4694    0.0000 H       1  UNL1        0.0358
     37 H           4.9966    1.8979    0.0000 H       1  UNL1        0.0358
     38 H           4.1996    1.8979    0.0000 H       1  UNL1        0.0358
     39 H          10.7306    0.3304    0.0000 H       1  UNL1        0.0658
     40 H           9.3183    2.7550    0.0000 H       1  UNL1        0.0622
     41 H           4.9272   -1.7671    0.0000 H       1  UNL1        0.0575
     42 H           3.7320    0.3029    0.0000 H       1  UNL1        0.0575
     43 H          10.7181    3.5704    0.0000 H       1  UNL1        0.0655
     44 H           5.7932    2.7329    0.0000 H       1  UNL1        0.2922
     45 H           4.5981   -1.1971    0.0000 H       1  UNL1        0.2922
     46 H           4.2881   -3.0401    0.0000 H       1  UNL1        0.0274
     47 H           4.0611   -3.8871    0.0000 H       1  UNL1        0.0274
     48 H           4.9081   -4.1140    0.0000 H       1  UNL1        0.0274
     49 H           6.0201   -4.1140    0.0000 H       1  UNL1        0.0274
     50 H           6.8671   -3.8871    0.0000 H       1  UNL1        0.0274
     51 H           6.6401   -3.0401    0.0000 H       1  UNL1        0.0274
     52 H           1.6900    1.4599    0.0000 H       1  UNL1        0.0274
     53 H           1.4631    0.6129    0.0000 H       1  UNL1        0.0274
     54 H           2.3100    0.3860    0.0000 H       1  UNL1        0.0274
     55 H           3.4860    2.4229    0.0000 H       1  UNL1        0.0274
     56 H           2.8660    3.0429    0.0000 H       1  UNL1        0.0274
     57 H           2.2460    2.4229    0.0000 H       1  UNL1        0.0274
     58 H          12.4626    0.3371    0.0000 H       1  UNL1        0.2923
     59 H          12.4501    3.5771    0.0000 H       1  UNL1        0.2923
@<TRIPOS>BOND
     1     1     9    1
     2     1    10    1
     3     2    11    2
     4     3    14    1
     5     3    44    1
     6     4    16    1
     7     4    45    1
     8     5    23    1
     9     5    58    1
    10     6    25    1
    11     6    59    1
    12     7    10    1
    13     7    11    1
    14     7    15    1
    15     7    32    1
    16     8     9   ar
    17     8    11    1
    18     8    14   ar
    19     9    12   ar
    20    10    33    1
    21    10    34    1
    22    12    16   ar
    23    12    17    1
    24    13    14   ar
    25    13    16   ar
    26    13    18    1
    27    15    19   ar
    28    15    20   ar
    29    17    21    1
    30    17    35    1
    31    17    36    1
    32    18    22    1
    33    18    37    1
    34    18    38    1
    35    19    23   ar
    36    19    39    1
    37    20    24   ar
    38    20    40    1
    39    21    26    2
    40    21    41    1
    41    22    27    2
    42    22    42    1
    43    23    25   ar
    44    24    25   ar
    45    24    43    1
    46    26    28    1
    47    26    29    1
    48    27    30    1
    49    27    31    1
    50    28    46    1
    51    28    47    1
    52    28    48    1
    53    29    49    1
    54    29    50    1
    55    29    51    1
    56    30    52    1
    57    30    53    1
    58    30    54    1
    59    31    55    1
    60    31    56    1
    61    31    57    1
