@<TRIPOS>MOLECULE
IMPHY013391
 51 53 0 0 0
SMALL
GASTEIGER

@<TRIPOS>ATOM
      1 O           6.0682   -2.4827    0.0000 O.2     1  UNL1       -0.4618
      2 O          10.3984    1.0173    0.0000 O.3     1  UNL1       -0.4910
      3 O           8.6663   -1.9827    0.0000 O.3     1  UNL1       -0.5057
      4 O           8.6663    2.0173    0.0000 O.3     1  UNL1       -0.4914
      5 O           6.0682    0.5173    0.0000 O.2     1  UNL1       -0.2863
      6 O           4.3198    0.5519    0.0000 O.3     1  UNL1       -0.5058
      7 O           2.5381   -2.5068    0.0000 O.3     1  UNL1       -0.5065
      8 C           9.5323   -0.4827    0.0000 C.ar    1  UNL1        0.0436
      9 C           7.8003   -0.4827    0.0000 C.ar    1  UNL1        0.0341
     10 C           8.6663   -0.9827    0.0000 C.ar    1  UNL1        0.1319
     11 C           6.9343   -0.9827    0.0000 C.ar    1  UNL1        0.0680
     12 C          10.3984   -0.9827    0.0000 C.3     1  UNL1       -0.0022
     13 C           9.5323    0.5173    0.0000 C.ar    1  UNL1        0.1684
     14 C           7.8003    0.5173    0.0000 C.ar    1  UNL1       -0.0049
     15 C           8.6663    1.0173    0.0000 C.ar    1  UNL1        0.1626
     16 C           6.0682   -0.4827    0.0000 C.ar    1  UNL1        0.2038
     17 C           5.2022   -0.9827    0.0000 C.ar    1  UNL1        0.1060
     18 C           5.2022   -1.9827    0.0000 C.ar    1  UNL1        0.1454
     19 C          11.2644   -0.4827    0.0000 C.2     1  UNL1       -0.0807
     20 C           6.9343   -1.9827    0.0000 C.ar    1  UNL1        0.1040
     21 C           4.3083   -0.4480    0.0000 C.ar    1  UNL1        0.1347
     22 C          12.1304   -0.9827    0.0000 C.2     1  UNL1       -0.0793
     23 C           4.3083   -2.5173    0.0000 C.ar    1  UNL1        0.0231
     24 C           3.4022   -0.9619    0.0000 C.ar    1  UNL1        0.0223
     25 C           3.4022   -2.0035    0.0000 C.ar    1  UNL1        0.1239
     26 C          12.9965   -0.4827    0.0000 C.3     1  UNL1       -0.0440
     27 C          12.1304   -1.9827    0.0000 C.3     1  UNL1       -0.0440
     28 C          10.3984    2.0173    0.0000 C.3     1  UNL1        0.0790
     29 C           7.8003    2.5173    0.0000 C.3     1  UNL1        0.0790
     30 H           9.9998   -1.4576    0.0000 H       1  UNL1        0.0358
     31 H          10.7969   -1.4576    0.0000 H       1  UNL1        0.0358
     32 H           7.2634    0.8273    0.0000 H       1  UNL1        0.0663
     33 H          11.2644    0.1373    0.0000 H       1  UNL1        0.0575
     34 H           7.4712   -2.2927    0.0000 H       1  UNL1        0.1037
     35 H           4.3154   -3.1373    0.0000 H       1  UNL1        0.0691
     36 H           2.8665   -0.6498    0.0000 H       1  UNL1        0.0691
     37 H           9.2033   -2.2927    0.0000 H       1  UNL1        0.2922
     38 H          13.3065   -1.0196    0.0000 H       1  UNL1        0.0274
     39 H          13.5334   -0.1727    0.0000 H       1  UNL1        0.0274
     40 H          12.6865    0.0543    0.0000 H       1  UNL1        0.0274
     41 H          11.5104   -1.9827    0.0000 H       1  UNL1        0.0274
     42 H          12.1304   -2.6027    0.0000 H       1  UNL1        0.0274
     43 H          12.7504   -1.9827    0.0000 H       1  UNL1        0.0274
     44 H          11.0184    2.0173    0.0000 H       1  UNL1        0.0660
     45 H          10.3984    2.6373    0.0000 H       1  UNL1        0.0660
     46 H           9.7784    2.0173    0.0000 H       1  UNL1        0.0660
     47 H           8.1103    3.0543    0.0000 H       1  UNL1        0.0660
     48 H           7.2634    2.8273    0.0000 H       1  UNL1        0.0660
     49 H           7.4903    1.9804    0.0000 H       1  UNL1        0.0660
     50 H           3.7865    0.8681    0.0000 H       1  UNL1        0.2922
     51 H           2.0000   -2.1989    0.0000 H       1  UNL1        0.2921
@<TRIPOS>BOND
     1     1    18   ar
     2     1    20   ar
     3     2    13    1
     4     2    28    1
     5     3    10    1
     6     3    37    1
     7     4    15    1
     8     4    29    1
     9     5    16    2
    10     6    21    1
    11     6    50    1
    12     7    25    1
    13     7    51    1
    14     8    10   ar
    15     8    12    1
    16     8    13   ar
    17     9    10   ar
    18     9    11    1
    19     9    14   ar
    20    11    16   ar
    21    11    20   ar
    22    12    19    1
    23    12    30    1
    24    12    31    1
    25    13    15   ar
    26    14    15   ar
    27    14    32    1
    28    16    17   ar
    29    17    18   ar
    30    17    21   ar
    31    18    23   ar
    32    19    22    2
    33    19    33    1
    34    20    34    1
    35    21    24   ar
    36    22    26    1
    37    22    27    1
    38    23    25   ar
    39    23    35    1
    40    24    25   ar
    41    24    36    1
    42    26    38    1
    43    26    39    1
    44    26    40    1
    45    27    41    1
    46    27    42    1
    47    27    43    1
    48    28    44    1
    49    28    45    1
    50    28    46    1
    51    29    47    1
    52    29    48    1
    53    29    49    1
