@<TRIPOS>MOLECULE
IMPHY014156
 27 29 0 0 0
SMALL
GASTEIGER

@<TRIPOS>ATOM
      1 O           3.6613    2.1803    0.0000 O.2     1  UNL1       -0.2760
      2 N           4.5274    0.6803    0.0000 N.ar    1  UNL1       -0.2824
      3 C           5.0274   -0.8585    0.0000 C.ar    1  UNL1        0.0083
      4 C           5.3364    0.0925    0.0000 C.ar    1  UNL1        0.0572
      5 C           4.0274   -0.8585    0.0000 C.ar    1  UNL1        0.0080
      6 C           3.7183    0.0925    0.0000 C.ar    1  UNL1        0.0572
      7 C           5.7123   -1.6433    0.0000 C.ar    1  UNL1       -0.0491
      8 C           6.3518    0.3248    0.0000 C.ar    1  UNL1       -0.0369
      9 C           6.7328   -1.4346    0.0000 C.ar    1  UNL1       -0.0497
     10 C           3.3424   -1.6433    0.0000 C.ar    1  UNL1       -0.0520
     11 C           2.7029    0.3248    0.0000 C.ar    1  UNL1       -0.0372
     12 C           7.0547   -0.4439    0.0000 C.ar    1  UNL1       -0.0568
     13 C           2.3219   -1.4346    0.0000 C.ar    1  UNL1       -0.0611
     14 C           2.0000   -0.4439    0.0000 C.ar    1  UNL1       -0.0598
     15 C           4.5274    1.6803    0.0000 C.2     1  UNL1        0.2193
     16 C           7.3991   -2.1803    0.0000 C.3     1  UNL1       -0.0397
     17 H           5.5139   -2.2307    0.0000 H       1  UNL1        0.0627
     18 H           6.5365    0.9166    0.0000 H       1  UNL1        0.0638
     19 H           3.5408   -2.2307    0.0000 H       1  UNL1        0.0624
     20 H           2.5182    0.9166    0.0000 H       1  UNL1        0.0638
     21 H           7.6607   -0.3127    0.0000 H       1  UNL1        0.0621
     22 H           1.9088   -1.8969    0.0000 H       1  UNL1        0.0618
     23 H           1.3940   -0.3127    0.0000 H       1  UNL1        0.0618
     24 H           5.0643    1.9903    0.0000 H       1  UNL1        0.1287
     25 H           6.9368   -2.5934    0.0000 H       1  UNL1        0.0278
     26 H           7.8122   -2.6426    0.0000 H       1  UNL1        0.0278
     27 H           7.8614   -1.7672    0.0000 H       1  UNL1        0.0278
@<TRIPOS>BOND
     1     1    15    2
     2     2     4   ar
     3     2     6   ar
     4     2    15   am
     5     3     4   ar
     6     3     5   ar
     7     3     7   ar
     8     4     8   ar
     9     5     6   ar
    10     5    10   ar
    11     6    11   ar
    12     7     9   ar
    13     7    17    1
    14     8    12   ar
    15     8    18    1
    16     9    12   ar
    17     9    16    1
    18    10    13   ar
    19    10    19    1
    20    11    14   ar
    21    11    20    1
    22    12    21    1
    23    13    14   ar
    24    13    22    1
    25    14    23    1
    26    15    24    1
    27    16    25    1
    28    16    26    1
    29    16    27    1
