@<TRIPOS>MOLECULE
IMPHY007636
 34 36 0 0 0
SMALL
GASTEIGER

@<TRIPOS>ATOM
      1 O           7.3424   -0.0403    0.0000 O.2     1  UNL1       -0.4624
      2 O           3.7702    0.1897    0.0000 O.2     1  UNL1       -0.4216
      3 O           5.5301   -2.8450    0.0000 O.3     1  UNL1       -0.5053
      4 O           2.0000    0.1792    0.0000 O.2     1  UNL1       -0.2452
      5 C           5.5301    0.1550    0.0000 C.ar    1  UNL1        0.0423
      6 C           6.3961   -0.3450    0.0000 C.ar    1  UNL1        0.1453
      7 C           4.6641   -0.3450    0.0000 C.ar    1  UNL1        0.1495
      8 C           6.3961   -1.3450    0.0000 C.ar    1  UNL1        0.0626
      9 C           5.5301    1.1550    0.0000 C.3     1  UNL1       -0.0022
     10 C           4.6641   -1.3450    0.0000 C.ar    1  UNL1        0.0601
     11 C           5.5301   -1.8450    0.0000 C.ar    1  UNL1        0.1382
     12 C           7.3424   -1.6497    0.0000 C.ar    1  UNL1       -0.0126
     13 C           6.3961    1.6550    0.0000 C.2     1  UNL1       -0.0807
     14 C           3.7702   -1.8797    0.0000 C.ar    1  UNL1       -0.0408
     15 C           7.9260   -0.8450    0.0000 C.ar    1  UNL1        0.0933
     16 C           6.3961    2.6550    0.0000 C.2     1  UNL1       -0.0793
     17 C           2.8641   -1.3658    0.0000 C.ar    1  UNL1        0.0237
     18 C           2.8641   -0.3242    0.0000 C.ar    1  UNL1        0.3372
     19 C           7.2622    3.1550    0.0000 C.3     1  UNL1       -0.0440
     20 C           5.5301    3.1550    0.0000 C.3     1  UNL1       -0.0440
     21 H           5.3181    1.7376    0.0000 H       1  UNL1        0.0358
     22 H           4.9196    1.0473    0.0000 H       1  UNL1        0.0358
     23 H           7.5350   -2.2391    0.0000 H       1  UNL1        0.0656
     24 H           6.9331    1.3450    0.0000 H       1  UNL1        0.0575
     25 H           3.7773   -2.4996    0.0000 H       1  UNL1        0.0628
     26 H           8.5460   -0.8450    0.0000 H       1  UNL1        0.1030
     27 H           2.3284   -1.6779    0.0000 H       1  UNL1        0.0689
     28 H           6.0671   -3.1550    0.0000 H       1  UNL1        0.2922
     29 H           7.5722    2.6181    0.0000 H       1  UNL1        0.0274
     30 H           7.7991    3.4650    0.0000 H       1  UNL1        0.0274
     31 H           5.8401    3.6919    0.0000 H       1  UNL1        0.0274
     32 H           4.9932    3.4650    0.0000 H       1  UNL1        0.0274
     33 H           5.2201    2.6181    0.0000 H       1  UNL1        0.0274
     34 H           6.9522    3.6919    0.0000 H       1  UNL1        0.0274
@<TRIPOS>BOND
     1     1     6   ar
     2     1    15   ar
     3     2     7   ar
     4     2    18   ar
     5     3    11    1
     6     3    28    1
     7     4    18    2
     8     5     6   ar
     9     5     7   ar
    10     5     9    1
    11     6     8   ar
    12     7    10   ar
    13     8    11   ar
    14     8    12   ar
    15     9    13    1
    16     9    21    1
    17     9    22    1
    18    10    11   ar
    19    10    14   ar
    20    12    15   ar
    21    12    23    1
    22    13    16    2
    23    13    24    1
    24    14    17   ar
    25    14    25    1
    26    15    26    1
    27    16    19    1
    28    16    20    1
    29    17    18   ar
    30    17    27    1
    31    19    29    1
    32    19    30    1
    33    19    34    1
    34    20    31    1
    35    20    32    1
    36    20    33    1
