@<TRIPOS>MOLECULE
IMPHY016405
 75 79 0 0 0
SMALL
GASTEIGER

@<TRIPOS>ATOM
      1 C           3.5298   -2.9385    0.0000 C.3     1  UNL1       -0.0025
      2 C           3.5298   -1.9385    0.0000 C.3     1  UNL1       -0.0194
      3 C           2.5836   -3.2432    0.0000 C.3     1  UNL1       -0.0306
      4 C           3.3208   -3.9108    0.0000 C.3     1  UNL1       -0.0395
      5 C           4.3958   -1.4385    0.0000 C.3     1  UNL1       -0.0283
      6 C           2.5836   -1.6338    0.0000 C.3     1  UNL1       -0.0463
      7 C           2.0000   -2.4385    0.0000 C.3     1  UNL1       -0.0489
      8 C           5.2619   -1.9385    0.0000 C.3     1  UNL1       -0.0162
      9 C           6.1719   -1.4317    0.0000 C.3     1  UNL1       -0.0288
     10 C           4.3958   -3.4385    0.0000 C.2     1  UNL1       -0.0807
     11 C           6.1799   -0.3901    0.0000 C.3     1  UNL1       -0.0253
     12 C           4.3798   -0.3970    0.0000 C.3     1  UNL1       -0.0486
     13 C           3.5298   -0.9385    0.0000 C.3     1  UNL1       -0.0585
     14 C           5.2619   -2.9385    0.0000 C.2     1  UNL1       -0.0837
     15 C           5.2778    0.1308    0.0000 C.3     1  UNL1       -0.0468
     16 C           7.1679   -0.0803    0.0000 C.3     1  UNL1       -0.0293
     17 C           7.1550   -1.7567    0.0000 C.3     1  UNL1       -0.0489
     18 C           7.7694   -0.9231    0.0000 C.3     1  UNL1       -0.0489
     19 C           6.1876    0.6099    0.0000 C.3     1  UNL1       -0.0590
     20 C           7.4859    0.8678    0.0000 C.3     1  UNL1       -0.0224
     21 C           6.8238    1.6173    0.0000 C.3     1  UNL1       -0.0587
     22 C           8.4660    1.0665    0.0000 C.2     1  UNL1       -0.0845
     23 C           8.7840    2.0146    0.0000 C.2     1  UNL1       -0.0843
     24 C           9.7640    2.2133    0.0000 C.3     1  UNL1       -0.0208
     25 C          10.0820    3.1614    0.0000 C.3     1  UNL1       -0.0405
     26 C          10.4261    1.4639    0.0000 C.3     1  UNL1       -0.0494
     27 C          11.0621    3.3600    0.0000 C.3     1  UNL1       -0.0621
     28 C           9.4199    3.9108    0.0000 C.3     1  UNL1       -0.0621
     29 C          11.4062    1.6625    0.0000 C.3     1  UNL1       -0.0647
     30 H           2.1221   -3.6572    0.0000 H       1  UNL1        0.0310
     31 H           2.9908   -4.4357    0.0000 H       1  UNL1        0.0277
     32 H           3.8950   -4.1445    0.0000 H       1  UNL1        0.0277
     33 H           4.9304   -1.1244    0.0000 H       1  UNL1        0.0312
     34 H           2.8346   -1.0669    0.0000 H       1  UNL1        0.0271
     35 H           2.0462   -1.3245    0.0000 H       1  UNL1        0.0271
     36 H           1.5391   -2.0238    0.0000 H       1  UNL1        0.0268
     37 H           1.5391   -2.8532    0.0000 H       1  UNL1        0.0268
     38 H           5.7964   -2.2526    0.0000 H       1  UNL1        0.0349
     39 H           6.2304   -2.0489    0.0000 H       1  UNL1        0.0312
     40 H           4.3958   -4.0585    0.0000 H       1  UNL1        0.0575
     41 H           4.1618    0.1834    0.0000 H       1  UNL1        0.0268
     42 H           3.7706   -0.5125    0.0000 H       1  UNL1        0.0268
     43 H           4.1498   -0.9385    0.0000 H       1  UNL1        0.0235
     44 H           3.5298   -0.3185    0.0000 H       1  UNL1        0.0235
     45 H           2.9098   -0.9385    0.0000 H       1  UNL1        0.0235
     46 H           5.7988   -3.2485    0.0000 H       1  UNL1        0.0572
     47 H           5.6751    0.6067    0.0000 H       1  UNL1        0.0271
     48 H           4.8769    0.6036    0.0000 H       1  UNL1        0.0271
     49 H           7.7812    0.0112    0.0000 H       1  UNL1        0.0312
     50 H           6.8996   -2.3216    0.0000 H       1  UNL1        0.0268
     51 H           7.6900   -2.0700    0.0000 H       1  UNL1        0.0268
     52 H           8.2270   -1.3414    0.0000 H       1  UNL1        0.0268
     53 H           8.2334   -0.5120    0.0000 H       1  UNL1        0.0268
     54 H           6.8076    0.6051    0.0000 H       1  UNL1        0.0235
     55 H           6.1924    1.2299    0.0000 H       1  UNL1        0.0235
     56 H           5.5676    0.6147    0.0000 H       1  UNL1        0.0235
     57 H           7.6831    1.4557    0.0000 H       1  UNL1        0.0343
     58 H           7.2885    2.0278    0.0000 H       1  UNL1        0.0235
     59 H           6.4133    2.0819    0.0000 H       1  UNL1        0.0235
     60 H           6.3592    1.2068    0.0000 H       1  UNL1        0.0235
     61 H           8.8765    0.6019    0.0000 H       1  UNL1        0.0572
     62 H           8.3735    2.4793    0.0000 H       1  UNL1        0.0572
     63 H           9.5669    1.6255    0.0000 H       1  UNL1        0.0345
     64 H           9.4744    3.0382    0.0000 H       1  UNL1        0.0301
     65 H           9.8972    1.1403    0.0000 H       1  UNL1        0.0268
     66 H          10.6529    0.8868    0.0000 H       1  UNL1        0.0268
     67 H          11.1853    2.7524    0.0000 H       1  UNL1        0.0233
     68 H          11.6697    3.4832    0.0000 H       1  UNL1        0.0233
     69 H          10.9389    3.9677    0.0000 H       1  UNL1        0.0233
     70 H           9.8846    4.3213    0.0000 H       1  UNL1        0.0233
     71 H           9.0094    4.3754    0.0000 H       1  UNL1        0.0233
     72 H           8.9553    3.5003    0.0000 H       1  UNL1        0.0233
     73 H          11.5294    1.0549    0.0000 H       1  UNL1        0.0230
     74 H          12.0138    1.7857    0.0000 H       1  UNL1        0.0230
     75 H          11.2830    2.2702    0.0000 H       1  UNL1        0.0230
@<TRIPOS>BOND
     1     1     2    1
     2     1     3    1
     3     1     4    1
     4     1    10    1
     5     2     5    1
     6     2     6    1
     7     2    13    1
     8     3     4    1
     9     3     7    1
    10     3    30    1
    11     4    31    1
    12     4    32    1
    13     5     8    1
    14     5    12    1
    15     5    33    1
    16     6     7    1
    17     6    34    1
    18     6    35    1
    19     7    36    1
    20     7    37    1
    21     8     9    1
    22     8    14    1
    23     8    38    1
    24     9    11    1
    25     9    17    1
    26     9    39    1
    27    10    14    2
    28    10    40    1
    29    11    15    1
    30    11    16    1
    31    11    19    1
    32    12    15    1
    33    12    41    1
    34    12    42    1
    35    13    43    1
    36    13    44    1
    37    13    45    1
    38    14    46    1
    39    15    47    1
    40    15    48    1
    41    16    18    1
    42    16    20    1
    43    16    49    1
    44    17    18    1
    45    17    50    1
    46    17    51    1
    47    18    52    1
    48    18    53    1
    49    19    54    1
    50    19    55    1
    51    19    56    1
    52    20    21    1
    53    20    22    1
    54    20    57    1
    55    21    58    1
    56    21    59    1
    57    21    60    1
    58    22    23    2
    59    22    61    1
    60    23    24    1
    61    23    62    1
    62    24    25    1
    63    24    26    1
    64    24    63    1
    65    25    27    1
    66    25    28    1
    67    25    64    1
    68    26    29    1
    69    26    65    1
    70    26    66    1
    71    27    67    1
    72    27    68    1
    73    27    69    1
    74    28    70    1
    75    28    71    1
    76    28    72    1
    77    29    73    1
    78    29    74    1
    79    29    75    1
