@<TRIPOS>MOLECULE
IMPHY013469
 42 44 0 0 0
SMALL
GASTEIGER

@<TRIPOS>ATOM
      1 O           2.8641   -0.6158    0.0000 O.3     1  UNL1       -0.3689
      2 O           5.5301    1.9050    0.0000 O.3     1  UNL1       -0.4941
      3 O           5.5301   -2.0950    0.0000 O.3     1  UNL1       -0.5057
      4 O           7.2785    1.9396    0.0000 O.2     1  UNL1       -0.5027
      5 O           9.0602    0.9292    0.0000 O.2     1  UNL1       -0.4883
      6 O           7.2785   -2.1296    0.0000 O.2     1  UNL1       -0.2829
      7 O           9.0602   -1.1192    0.0000 O.2     1  UNL1       -0.2798
      8 C           4.6641    0.4050    0.0000 C.ar    1  UNL1        0.0065
      9 C           4.6641   -0.5950    0.0000 C.ar    1  UNL1        0.0297
     10 C           3.7702    0.9397    0.0000 C.3     1  UNL1        0.0024
     11 C           3.7702   -1.1297    0.0000 C.3     1  UNL1        0.0849
     12 C           2.8641    0.4258    0.0000 C.3     1  UNL1        0.0607
     13 C           5.5301    0.9050    0.0000 C.ar    1  UNL1        0.1353
     14 C           5.5301   -1.0950    0.0000 C.ar    1  UNL1        0.1346
     15 C           6.3961    0.4050    0.0000 C.ar    1  UNL1        0.0765
     16 C           6.3961   -0.5950    0.0000 C.ar    1  UNL1        0.0816
     17 C           3.7817   -2.1296    0.0000 C.3     1  UNL1       -0.0344
     18 C           2.0000    0.9292    0.0000 C.3     1  UNL1       -0.0384
     19 C           7.2901    0.9397    0.0000 C.2     1  UNL1        0.1741
     20 C           7.2901   -1.1297    0.0000 C.2     1  UNL1        0.2405
     21 C           8.1962    0.4258    0.0000 C.2     1  UNL1        0.2131
     22 C           8.1962   -0.6158    0.0000 C.2     1  UNL1        0.2708
     23 C           4.6641    2.4050    0.0000 C.3     1  UNL1        0.0788
     24 C           9.9282    0.4325    0.0000 C.3     1  UNL1        0.0791
     25 H           4.1748    1.4095    0.0000 H       1  UNL1        0.0339
     26 H           3.3765    1.4187    0.0000 H       1  UNL1        0.0339
     27 H           3.2362   -1.4448    0.0000 H       1  UNL1        0.0645
     28 H           2.3266    0.1169    0.0000 H       1  UNL1        0.0597
     29 H           3.1618   -2.1368    0.0000 H       1  UNL1        0.0258
     30 H           3.7889   -2.7496    0.0000 H       1  UNL1        0.0258
     31 H           4.4017   -2.1224    0.0000 H       1  UNL1        0.0258
     32 H           2.3121    1.4649    0.0000 H       1  UNL1        0.0255
     33 H           1.4643    1.2412    0.0000 H       1  UNL1        0.0255
     34 H           1.6879    0.3934    0.0000 H       1  UNL1        0.0255
     35 H           4.9932   -2.4050    0.0000 H       1  UNL1        0.2922
     36 H           4.9741    2.9419    0.0000 H       1  UNL1        0.0660
     37 H           4.1272    2.7150    0.0000 H       1  UNL1        0.0660
     38 H           4.3541    1.8681    0.0000 H       1  UNL1        0.0660
     39 H           7.8118    2.2558    0.0000 H       1  UNL1        0.2923
     40 H           9.6203   -0.1056    0.0000 H       1  UNL1        0.0660
     41 H          10.4663    0.1246    0.0000 H       1  UNL1        0.0660
     42 H          10.2361    0.9706    0.0000 H       1  UNL1        0.0660
@<TRIPOS>BOND
     1     1    11    1
     2     1    12    1
     3     2    13    1
     4     2    23    1
     5     3    14    1
     6     3    35    1
     7     4    19    1
     8     4    39    1
     9     5    21    1
    10     5    24    1
    11     6    20    2
    12     7    22    2
    13     8     9   ar
    14     8    10    1
    15     8    13   ar
    16     9    11    1
    17     9    14   ar
    18    10    12    1
    19    10    25    1
    20    10    26    1
    21    11    17    1
    22    11    27    1
    23    12    18    1
    24    12    28    1
    25    13    15   ar
    26    14    16   ar
    27    15    16   ar
    28    15    19    1
    29    16    20    1
    30    17    29    1
    31    17    30    1
    32    17    31    1
    33    18    32    1
    34    18    33    1
    35    18    34    1
    36    19    21    2
    37    20    22    1
    38    21    22    1
    39    23    36    1
    40    23    37    1
    41    23    38    1
    42    24    40    1
    43    24    41    1
    44    24    42    1
