@<TRIPOS>MOLECULE
IMPHY012083
 21 21 0 0 0
SMALL
GASTEIGER

@<TRIPOS>ATOM
      1 O           3.7601   -0.7694    0.0000 O.3     1  UNL1       -0.4613
      2 O           2.0000   -0.4907    0.0000 O.2     1  UNL1       -0.2508
      3 C           4.5691   -0.1816    0.0000 C.3     1  UNL1        0.1036
      4 C           4.2601    0.7694    0.0000 C.3     1  UNL1       -0.0056
      5 C           5.5202   -0.4907    0.0000 C.3     1  UNL1       -0.0159
      6 C           3.2601    0.7694    0.0000 C.3     1  UNL1        0.0483
      7 C           6.2633    0.1785    0.0000 C.3     1  UNL1       -0.0526
      8 C           2.9511   -0.1816    0.0000 C.2     1  UNL1        0.3075
      9 C           7.2144   -0.1305    0.0000 C.3     1  UNL1       -0.0652
     10 H           4.6661   -0.7940    0.0000 H       1  UNL1        0.0734
     11 H           4.8665    0.8983    0.0000 H       1  UNL1        0.0306
     12 H           4.1953    1.3860    0.0000 H       1  UNL1        0.0306
     13 H           5.2291   -1.0381    0.0000 H       1  UNL1        0.0301
     14 H           6.0087   -0.8724    0.0000 H       1  UNL1        0.0301
     15 H           3.3249    1.3860    0.0000 H       1  UNL1        0.0379
     16 H           2.6536    0.8983    0.0000 H       1  UNL1        0.0379
     17 H           6.5544    0.7259    0.0000 H       1  UNL1        0.0264
     18 H           5.7747    0.5602    0.0000 H       1  UNL1        0.0264
     19 H           7.0228   -0.7202    0.0000 H       1  UNL1        0.0230
     20 H           7.8040   -0.3221    0.0000 H       1  UNL1        0.0230
     21 H           7.4059    0.4591    0.0000 H       1  UNL1        0.0230
@<TRIPOS>BOND
     1     1     3    1
     2     1     8    1
     3     2     8    2
     4     3     4    1
     5     3     5    1
     6     3    10    1
     7     4     6    1
     8     4    11    1
     9     4    12    1
    10     5     7    1
    11     5    13    1
    12     5    14    1
    13     6     8    1
    14     6    15    1
    15     6    16    1
    16     7     9    1
    17     7    17    1
    18     7    18    1
    19     9    19    1
    20     9    20    1
    21     9    21    1
