@<TRIPOS>MOLECULE
IMPHY003609
 18 17 0 0 0
SMALL
GASTEIGER

@<TRIPOS>ATOM
      1 S           4.5981   -0.2500    0.0000 S.3     1  UNL1       -0.0846
      2 S           5.4641    0.2500    0.0000 S.3     1  UNL1       -0.0649
      3 C           3.7320    0.2500    0.0000 C.3     1  UNL1        0.0221
      4 C           2.8660   -0.2500    0.0000 C.2     1  UNL1       -0.0805
      5 C           7.1962    0.2500    0.0000 C.2     1  UNL1       -0.0801
      6 C           8.0622   -0.2500    0.0000 C.3     1  UNL1       -0.0460
      7 C           6.3301   -0.2500    0.0000 C.2     1  UNL1       -0.0220
      8 C           2.0000    0.2500    0.0000 C.2     1  UNL1       -0.1018
      9 H           4.1306    0.7249    0.0000 H       1  UNL1        0.0427
     10 H           3.3335    0.7249    0.0000 H       1  UNL1        0.0427
     11 H           2.8660   -0.8700    0.0000 H       1  UNL1        0.0575
     12 H           7.1962    0.8700    0.0000 H       1  UNL1        0.0574
     13 H           7.7522   -0.7869    0.0000 H       1  UNL1        0.0272
     14 H           8.5991   -0.5600    0.0000 H       1  UNL1        0.0272
     15 H           8.3722    0.2869    0.0000 H       1  UNL1        0.0272
     16 H           6.3301   -0.8700    0.0000 H       1  UNL1        0.0695
     17 H           2.0000    0.8700    0.0000 H       1  UNL1        0.0532
     18 H           1.4631   -0.0600    0.0000 H       1  UNL1        0.0532
@<TRIPOS>BOND
     1     1     2    1
     2     1     3    1
     3     2     7    1
     4     3     4    1
     5     3     9    1
     6     3    10    1
     7     4     8    2
     8     4    11    1
     9     5     6    1
    10     5     7    2
    11     5    12    1
    12     6    13    1
    13     6    14    1
    14     6    15    1
    15     7    16    1
    16     8    17    1
    17     8    18    1
