@<TRIPOS>MOLECULE
IMPHY017504
 21 20 0 0 0
SMALL
GASTEIGER

@<TRIPOS>ATOM
      1 O           2.5369    1.0000    0.0000 O.3     1  UNL1       -0.3875
      2 C           3.4030    0.5000    0.0000 C.3     1  UNL1        0.0765
      3 C           4.2690    1.0000    0.0000 C.3     1  UNL1       -0.0047
      4 C           5.1350    0.5000    0.0000 C.2     1  UNL1       -0.0813
      5 C           3.4030   -0.5000    0.0000 C.2     1  UNL1       -0.0627
      6 C           6.0010    1.0000    0.0000 C.2     1  UNL1       -0.0661
      7 C           2.5369   -1.0000    0.0000 C.2     1  UNL1       -0.1002
      8 C           6.8671    0.5000    0.0000 C.2     1  UNL1       -0.0692
      9 C           7.7331    1.0000    0.0000 C.2     1  UNL1       -0.0987
     10 H           3.4030    1.1200    0.0000 H       1  UNL1        0.0640
     11 H           4.6675    1.4750    0.0000 H       1  UNL1        0.0336
     12 H           3.8705    1.4750    0.0000 H       1  UNL1        0.0336
     13 H           5.1350   -0.1200    0.0000 H       1  UNL1        0.0573
     14 H           3.9399   -0.8100    0.0000 H       1  UNL1        0.0592
     15 H           6.0010    1.6200    0.0000 H       1  UNL1        0.0614
     16 H           2.0000    0.6900    0.0000 H       1  UNL1        0.2102
     17 H           2.0000   -0.6900    0.0000 H       1  UNL1        0.0533
     18 H           2.5369   -1.6200    0.0000 H       1  UNL1        0.0533
     19 H           6.8671   -0.1200    0.0000 H       1  UNL1        0.0612
     20 H           8.2700    0.6900    0.0000 H       1  UNL1        0.0535
     21 H           7.7331    1.6200    0.0000 H       1  UNL1        0.0535
@<TRIPOS>BOND
     1     1     2    1
     2     1    16    1
     3     2     3    1
     4     2     5    1
     5     2    10    1
     6     3     4    1
     7     3    11    1
     8     3    12    1
     9     4     6    2
    10     4    13    1
    11     5     7    2
    12     5    14    1
    13     6     8    1
    14     6    15    1
    15     7    17    1
    16     7    18    1
    17     8     9    2
    18     8    19    1
    19     9    20    1
    20     9    21    1
