@<TRIPOS>MOLECULE
IMPHY010485
 40 45 0 0 0
SMALL
GASTEIGER

@<TRIPOS>ATOM
      1 O          11.3876   -2.0254    0.0000 O.3     1  UNL1       -0.2257
      2 O           5.9945   -3.0777    0.0000 O.3     1  UNL1       -0.3311
      3 O           7.8911   -0.0256    0.0000 O.co2   1  UNL1       -0.2457
      4 O           8.7609    0.4677    0.0000 O.co2   1  UNL1       -0.2457
      5 O          12.6473    2.8479    0.0000 O.3     1  UNL1       -0.4408
      6 O           4.2625   -3.0711    0.0000 O.3     1  UNL1       -0.3284
      7 O          14.4078    3.1236    0.0000 O.2     1  UNL1       -0.2449
      8 O           6.0022   -1.0778    0.0000 O.3     1  UNL1       -0.2150
      9 O           4.2740   -0.0711    0.0000 O.3     1  UNL1       -0.3481
     10 O           2.5381   -1.0644    0.0000 O.3     1  UNL1       -0.2178
     11 C          11.3876   -1.0254    0.0000 C.3     1  UNL1        0.1267
     12 C          10.5216   -1.5254    0.0000 C.3     1  UNL1        0.0286
     13 C          11.3876   -0.0254    0.0000 C.3     1  UNL1        0.0294
     14 C           9.6555   -1.0254    0.0000 C.3     1  UNL1        0.0125
     15 C           8.7455   -1.5323    0.0000 C.3     1  UNL1        0.0940
     16 C          12.3338    0.2793    0.0000 C.3     1  UNL1        0.0244
     17 C          10.5216    0.4746    0.0000 C.3     1  UNL1        0.0027
     18 C           8.7375   -2.5739    0.0000 C.3     1  UNL1        0.0126
     19 C           9.6555   -0.0254    0.0000 C.3     1  UNL1        0.0007
     20 C          12.3338   -1.3302    0.0000 C.3     1  UNL1        0.0307
     21 C          10.5376   -2.5669    0.0000 C.3     1  UNL1        0.0025
     22 C          12.9174   -0.5254    0.0000 C.3     1  UNL1        0.0067
     23 C           9.6396   -3.0947    0.0000 C.3     1  UNL1        0.0007
     24 C           7.8187   -0.9682    0.0000 C.3     1  UNL1        0.0132
     25 C          11.3876    0.9746    0.0000 C.3     1  UNL1        0.0028
     26 C           7.8021   -3.1236    0.0000 C.3     1  UNL1        0.0302
     27 C           6.8708   -1.4961    0.0000 C.3     1  UNL1        0.0302
     28 C           6.8624   -2.5811    0.0000 C.3     1  UNL1        0.1179
     29 C           8.7532   -0.5323    0.0000 C.2     1  UNL1        0.3638
     30 C          12.6445    1.2298    0.0000 C.2     1  UNL1        0.0053
     31 C          12.0581    2.0399    0.0000 C.3     1  UNL1        0.2314
     32 C          13.5960    1.5372    0.0000 C.2     1  UNL1        0.0769
     33 C           5.1304   -2.5744    0.0000 C.3     1  UNL1        0.2692
     34 C          13.5978    2.5372    0.0000 C.2     1  UNL1        0.3412
     35 C           5.1343   -1.5744    0.0000 C.3     1  UNL1        0.2373
     36 C           4.2702   -1.0711    0.0000 C.3     1  UNL1        0.1832
     37 C           3.3984   -2.5677    0.0000 C.3     1  UNL1        0.1507
     38 C           3.4022   -1.5677    0.0000 C.3     1  UNL1        0.2085
     39 C           2.5304   -3.0644    0.0000 C.3     1  UNL1        0.0350
     40 C           3.4099    0.4322    0.0000 C.3     1  UNL1        0.1742
@<TRIPOS>BOND
     1     1    11    1
     2     2    28    1
     3     3    29   ar
     4     4    29   ar
     5     5    31    1
     6     5    34    1
     7     6    33    1
     8     6    37    1
     9     7    34    2
    10     9    40    1
    11    11    12    1
    12    11    13    1
    13    11    20    1
    14    12    14    1
    15    12    21    1
    16    13    16    1
    17    13    17    1
    18    13    25    1
    19    14    15    1
    20    14    19    1
    21    15    18    1
    22    15    24    1
    23    15    29    1
    24    16    22    1
    25    16    30    1
    26    17    19    1
    27    18    23    1
    28    18    26    1
    29    20    22    1
    30    21    23    1
    31    24    27    1
    32    26    28    1
    33    27    28    1
    34    30    31    1
    35    30    32    2
    36    32    34    1
    37    33     2    1
    38    33    35    1
    39    35     8    1
    40    35    36    1
    41    36     9    1
    42    36    38    1
    43    37    38    1
    44    37    39    1
    45    38    10    1
