@<TRIPOS>MOLECULE
IMPHY010655
 59 65 0 0 0
SMALL
GASTEIGER

@<TRIPOS>ATOM
      1 O          14.9226   -1.3442    0.0000 O.3     1  UNL1       -0.3622
      2 C          16.0330   -2.0066    0.0000 C.3     1  UNL1        0.0769
      3 C          16.0525   -3.3313    0.0000 C.3     1  UNL1        0.0235
      4 C          14.9226   -3.9936    0.0000 C.3     1  UNL1        0.0070
      5 C          13.7732   -3.3508    0.0000 C.3     1  UNL1        0.0552
      6 C          12.6238   -2.6884    0.0000 C.3     1  UNL1        0.1504
      7 C          11.4744   -3.3508    0.0000 C.3     1  UNL1        0.0093
      8 C          11.4744   -4.6755    0.0000 C.3     1  UNL1       -0.0011
      9 C          10.3055   -5.3378    0.0000 C.3     1  UNL1       -0.0002
     10 C           9.1951   -4.6755    0.0000 C.3     1  UNL1       -0.0000
     11 C           8.0262   -5.3378    0.0000 C.3     1  UNL1        0.0002
     12 C           8.0262   -6.6626    0.0000 C.3     1  UNL1        0.0046
     13 C           6.8769   -7.3249    0.0000 C.3     1  UNL1        0.0526
     14 C           5.7275   -6.6626    0.0000 C.3     1  UNL1        0.1200
     15 C           5.7275   -5.3378    0.0000 C.3     1  UNL1        0.0297
     16 C           6.8769   -4.6755    0.0000 C.3     1  UNL1        0.0025
     17 C          13.7537   -2.0066    0.0000 C.3     1  UNL1        0.1438
     18 C          13.7732   -4.6755    0.0000 C.3     1  UNL1        0.0049
     19 C          12.6238   -5.3378    0.0000 C.3     1  UNL1       -0.0001
     20 C          10.3250   -2.6884    0.0000 C.3     1  UNL1       -0.0015
     21 C           9.1951   -3.3508    0.0000 C.3     1  UNL1       -0.0002
     22 C          10.2861   -6.6626    0.0000 C.3     1  UNL1       -0.0000
     23 C           9.1951   -7.3249    0.0000 C.3     1  UNL1        0.0002
     24 C          17.1824   -1.3247    0.0000 C.3     1  UNL1        0.0543
     25 C          18.3513   -1.9676    0.0000 C.3     1  UNL1        0.1840
     26 O          19.4812   -1.2858    0.0000 O.3     1  UNL1       -0.2204
     27 O          12.6238   -1.3637    0.0000 O.3     1  UNL1       -0.2234
     28 C          11.4744   -6.1171    0.0000 C.3     1  UNL1       -0.0002
     29 C          10.3055   -4.0326    0.0000 C.3     1  UNL1       -0.0000
     30 C           8.0262   -4.0131    0.0000 C.3     1  UNL1        0.0000
     31 C           7.5587   -8.4743    0.0000 C.3     1  UNL1        0.1471
     32 O           8.8639   -8.4743    0.0000 O.3     1  UNL1       -0.3285
     33 C           9.5263   -9.6432    0.0000 C.3     1  UNL1        0.2695
     34 O           8.8639  -10.7731    0.0000 O.3     1  UNL1       -0.3256
     35 C           9.5263  -11.9030    0.0000 C.3     1  UNL1        0.1835
     36 C          10.8510  -11.9030    0.0000 C.3     1  UNL1        0.2144
     37 C          11.5329  -10.7731    0.0000 C.3     1  UNL1        0.2198
     38 C          10.8510   -9.6432    0.0000 C.3     1  UNL1        0.2406
     39 C           6.2340   -8.4743    0.0000 C.3     1  UNL1        0.0049
     40 O           4.5781   -7.3249    0.0000 O.3     1  UNL1       -0.3310
     41 C           3.4482   -6.6626    0.0000 C.3     1  UNL1        0.2694
     42 O           3.4482   -5.3378    0.0000 O.3     1  UNL1       -0.3256
     43 C           2.2988   -4.6755    0.0000 C.3     1  UNL1        0.1835
     44 C           1.1299   -5.3378    0.0000 C.3     1  UNL1        0.2144
     45 C           1.1299   -6.6626    0.0000 C.3     1  UNL1        0.2198
     46 C           2.2988   -7.3249    0.0000 C.3     1  UNL1        0.2406
     47 C          17.1824    0.0000    0.0000 C.3     1  UNL1        0.0048
     48 C           8.8639  -13.0914    0.0000 C.3     1  UNL1        0.2142
     49 O           7.5587  -13.0914    0.0000 O.3     1  UNL1       -0.2176
     50 O          11.5329  -13.0719    0.0000 O.3     1  UNL1       -0.2176
     51 O          12.8576  -10.7731    0.0000 O.3     1  UNL1       -0.2174
     52 O          11.5329   -8.4743    0.0000 O.3     1  UNL1       -0.2149
     53 C           2.2988   -3.3508    0.0000 C.3     1  UNL1        0.2142
     54 O           1.1299   -2.6884    0.0000 O.3     1  UNL1       -0.2176
     55 O           0.0000   -4.6755    0.0000 O.3     1  UNL1       -0.2176
     56 O           0.0000   -7.3249    0.0000 O.3     1  UNL1       -0.2174
     57 O           2.2988   -8.6496    0.0000 O.3     1  UNL1       -0.2149
     58 H          16.0330   -0.4870    0.0000 H       1  UNL1        0.0609
     59 H          11.4744   -2.0066    0.0000 H       1  UNL1        0.0343
@<TRIPOS>BOND
     1     1    17    1
     2     1     2    1
     3     2     3    1
     4     2    24    1
     5     2    58    1
     6     3     4    1
     7     5     4    1
     8     5     6    1
     9     5    18    1
    10     5    17    1
    11     6     7    1
    12     6    27    1
    13     7     8    1
    14     7    20    1
    15     7    59    1
    16     8     9    1
    17     8    19    1
    18     8    28    1
    19     9    10    1
    20     9    22    1
    21     9    29    1
    22    10    11    1
    23    10    21    1
    24    11    12    1
    25    11    16    1
    26    11    30    1
    27    12    13    1
    28    12    23    1
    29    13    14    1
    30    13    39    1
    31    13    31    1
    32    14    15    1
    33    14    40    1
    34    15    16    1
    35    18    19    1
    36    20    21    1
    37    22    23    1
    38    24    25    1
    39    24    47    1
    40    25    26    1
    41    31    32    1
    42    33    32    1
    43    33    34    1
    44    33    38    1
    45    34    35    1
    46    35    36    1
    47    35    48    1
    48    36    37    1
    49    36    50    1
    50    37    38    1
    51    37    51    1
    52    38    52    1
    53    41    40    1
    54    41    42    1
    55    41    46    1
    56    42    43    1
    57    43    44    1
    58    43    53    1
    59    44    45    1
    60    44    55    1
    61    45    46    1
    62    45    56    1
    63    46    57    1
    64    48    49    1
    65    53    54    1
