@<TRIPOS>MOLECULE
IMPHY002303
 87 89 0 0 0
SMALL
GASTEIGER

@<TRIPOS>ATOM
      1 O           8.6270   -0.1527    0.0000 O.2     1  UNL1       -0.4908
      2 O           5.0162    0.5557    0.0000 O.2     1  UNL1       -0.2912
      3 O           6.8671    2.8820    0.0000 O.2     1  UNL1       -0.5055
      4 O           8.6155    2.9166    0.0000 O.2     1  UNL1       -0.2914
      5 O           2.5369    1.3820    0.0000 O.3     1  UNL1       -0.4806
      6 O           3.4030    2.8820    0.0000 O.2     1  UNL1       -0.2510
      7 C           6.8671   -0.1180    0.0000 C.3     1  UNL1        0.0982
      8 C           7.7331    0.3820    0.0000 C.2     1  UNL1        0.1263
      9 C           6.3671   -0.9840    0.0000 C.3     1  UNL1       -0.0115
     10 C           7.3671   -0.9840    0.0000 C.3     1  UNL1       -0.0145
     11 C           6.0010    0.3820    0.0000 C.2     1  UNL1        0.1773
     12 C           7.7331    1.3820    0.0000 C.2     1  UNL1        0.0979
     13 C           6.0010    1.3820    0.0000 C.2     1  UNL1        0.0460
     14 C           9.5331    1.4028    0.0000 C.3     1  UNL1        0.0561
     15 C           9.5331    0.3612    0.0000 C.3     1  UNL1        0.1066
     16 C           5.6010   -1.6268    0.0000 C.2     1  UNL1       -0.0694
     17 C           6.8671    1.8820    0.0000 C.2     1  UNL1        0.1377
     18 C           5.1350    1.8820    0.0000 C.3     1  UNL1        0.0261
     19 C           8.6270    1.9166    0.0000 C.2     1  UNL1        0.1762
     20 C           5.7746   -2.6116    0.0000 C.3     1  UNL1       -0.0312
     21 C           8.3671   -0.9840    0.0000 C.2     1  UNL1       -0.0839
     22 C          10.3972    1.9061    0.0000 C.3     1  UNL1       -0.0519
     23 C          10.3972   -0.1422    0.0000 C.3     1  UNL1       -0.0271
     24 C           4.6613   -1.2848    0.0000 C.2     1  UNL1       -0.0764
     25 C           5.0086   -3.2544    0.0000 C.3     1  UNL1       -0.0470
     26 C           4.2690    1.3820    0.0000 C.3     1  UNL1        0.0558
     27 C           5.1350    2.8820    0.0000 C.ar    1  UNL1       -0.0392
     28 C           5.1822   -4.2392    0.0000 C.3     1  UNL1       -0.0464
     29 C           8.8671   -1.8501    0.0000 C.2     1  UNL1       -0.0796
     30 C           3.8953   -1.9276    0.0000 C.3     1  UNL1       -0.0438
     31 C           4.4877   -0.3000    0.0000 C.3     1  UNL1       -0.0438
     32 C           6.0010    3.3820    0.0000 C.ar    1  UNL1       -0.0580
     33 C           4.2690    3.3820    0.0000 C.ar    1  UNL1       -0.0580
     34 C           3.4030    1.8820    0.0000 C.2     1  UNL1        0.3056
     35 C           4.4162   -4.8820    0.0000 C.3     1  UNL1       -0.0627
     36 C           6.1220   -4.5812    0.0000 C.3     1  UNL1       -0.0627
     37 C           9.8671   -1.8501    0.0000 C.3     1  UNL1       -0.0440
     38 C           8.3671   -2.7161    0.0000 C.3     1  UNL1       -0.0440
     39 C           6.0010    4.3820    0.0000 C.ar    1  UNL1       -0.0615
     40 C           4.2690    4.3820    0.0000 C.ar    1  UNL1       -0.0615
     41 C           5.1350    4.8820    0.0000 C.ar    1  UNL1       -0.0617
     42 H           6.5448   -1.5780    0.0000 H       1  UNL1        0.0324
     43 H           5.8921   -0.5855    0.0000 H       1  UNL1        0.0324
     44 H           6.7844   -1.1961    0.0000 H       1  UNL1        0.0321
     45 H           7.4747   -1.5946    0.0000 H       1  UNL1        0.0321
     46 H           9.5295    2.0228    0.0000 H       1  UNL1        0.0414
     47 H           9.5295   -0.2588    0.0000 H       1  UNL1        0.0737
     48 H           5.1350    1.2620    0.0000 H       1  UNL1        0.0405
     49 H           6.0846   -3.1486    0.0000 H       1  UNL1        0.0310
     50 H           6.3572   -2.3996    0.0000 H       1  UNL1        0.0310
     51 H           8.6771   -0.4471    0.0000 H       1  UNL1        0.0572
     52 H          10.7093    1.3704    0.0000 H       1  UNL1        0.0238
     53 H          10.9329    2.2182    0.0000 H       1  UNL1        0.0238
     54 H          10.0851    2.4419    0.0000 H       1  UNL1        0.0238
     55 H          10.0851   -0.6779    0.0000 H       1  UNL1        0.0265
     56 H          10.9329   -0.4542    0.0000 H       1  UNL1        0.0265
     57 H          10.7093    0.3936    0.0000 H       1  UNL1        0.0265
     58 H           4.6986   -2.7174    0.0000 H       1  UNL1        0.0271
     59 H           4.4260   -3.4664    0.0000 H       1  UNL1        0.0271
     60 H           3.8705    0.9070    0.0000 H       1  UNL1        0.0387
     61 H           4.6675    0.9070    0.0000 H       1  UNL1        0.0387
     62 H           5.2899   -4.8498    0.0000 H       1  UNL1        0.0296
     63 H           7.4040    3.1920    0.0000 H       1  UNL1        0.2922
     64 H           3.4968   -1.4526    0.0000 H       1  UNL1        0.0274
     65 H           3.4203   -2.3261    0.0000 H       1  UNL1        0.0274
     66 H           4.2938   -2.4025    0.0000 H       1  UNL1        0.0274
     67 H           5.0983   -0.1923    0.0000 H       1  UNL1        0.0274
     68 H           4.3800    0.3106    0.0000 H       1  UNL1        0.0274
     69 H           3.8771   -0.4077    0.0000 H       1  UNL1        0.0274
     70 H           6.5380    3.0720    0.0000 H       1  UNL1        0.0620
     71 H           3.7320    3.0720    0.0000 H       1  UNL1        0.0620
     72 H           5.9099   -5.1639    0.0000 H       1  UNL1        0.0232
     73 H           4.0177   -4.4070    0.0000 H       1  UNL1        0.0232
     74 H           3.9412   -5.2805    0.0000 H       1  UNL1        0.0232
     75 H           4.8147   -5.3569    0.0000 H       1  UNL1        0.0232
     76 H           6.7046   -4.7933    0.0000 H       1  UNL1        0.0232
     77 H           6.3340   -3.9986    0.0000 H       1  UNL1        0.0232
     78 H           9.8671   -2.4701    0.0000 H       1  UNL1        0.0274
     79 H          10.4871   -1.8501    0.0000 H       1  UNL1        0.0274
     80 H           9.8671   -1.2301    0.0000 H       1  UNL1        0.0274
     81 H           7.8301   -2.4061    0.0000 H       1  UNL1        0.0274
     82 H           8.0571   -3.2530    0.0000 H       1  UNL1        0.0274
     83 H           8.9040   -3.0261    0.0000 H       1  UNL1        0.0274
     84 H           6.5380    4.6920    0.0000 H       1  UNL1        0.0618
     85 H           3.7320    4.6920    0.0000 H       1  UNL1        0.0618
     86 H           5.1350    5.5020    0.0000 H       1  UNL1        0.0618
     87 H           2.0000    1.6920    0.0000 H       1  UNL1        0.2951
@<TRIPOS>BOND
     1     1     8    1
     2     1    15    1
     3     2    11    2
     4     3    17    1
     5     3    63    1
     6     4    19    2
     7     5    34    1
     8     5    87    1
     9     6    34    2
    10     7     8    1
    11     7     9    1
    12     7    10    1
    13     7    11    1
    14     8    12    2
    15     9    16    1
    16     9    42    1
    17     9    43    1
    18    10    21    1
    19    10    44    1
    20    10    45    1
    21    11    13    1
    22    12    17    1
    23    12    19    1
    24    13    17    2
    25    13    18    1
    26    14    15    1
    27    14    19    1
    28    14    22    1
    29    14    46    1
    30    15    23    1
    31    15    47    1
    32    16    20    1
    33    16    24    2
    34    18    26    1
    35    18    27    1
    36    18    48    1
    37    20    25    1
    38    20    49    1
    39    20    50    1
    40    21    29    2
    41    21    51    1
    42    22    52    1
    43    22    53    1
    44    22    54    1
    45    23    55    1
    46    23    56    1
    47    23    57    1
    48    24    30    1
    49    24    31    1
    50    25    28    1
    51    25    58    1
    52    25    59    1
    53    26    34    1
    54    26    60    1
    55    26    61    1
    56    27    32   ar
    57    27    33   ar
    58    28    35    1
    59    28    36    1
    60    28    62    1
    61    29    37    1
    62    29    38    1
    63    30    64    1
    64    30    65    1
    65    30    66    1
    66    31    67    1
    67    31    68    1
    68    31    69    1
    69    32    39   ar
    70    32    70    1
    71    33    40   ar
    72    33    71    1
    73    35    73    1
    74    35    74    1
    75    35    75    1
    76    36    72    1
    77    36    76    1
    78    36    77    1
    79    37    78    1
    80    37    79    1
    81    37    80    1
    82    38    81    1
    83    38    82    1
    84    38    83    1
    85    39    41   ar
    86    39    84    1
    87    40    41   ar
    88    40    85    1
    89    41    86    1
