@<TRIPOS>MOLECULE
IMPHY007057
 24 24 0 0 0
SMALL
GASTEIGER

@<TRIPOS>ATOM
      1 O           3.7320    2.5000    0.0000 O.3     1  UNL1       -0.4645
      2 O           2.0000   -2.5000    0.0000 O.3     1  UNL1       -0.4645
      3 O           2.0000    2.5000    0.0000 O.2     1  UNL1       -0.2450
      4 O           3.7320   -2.5000    0.0000 O.2     1  UNL1       -0.2450
      5 C           2.8660    1.0000    0.0000 C.ar    1  UNL1        0.0590
      6 C           2.8660   -1.0000    0.0000 C.ar    1  UNL1        0.0590
      7 C           2.0000    0.5000    0.0000 C.ar    1  UNL1       -0.0470
      8 C           2.0000   -0.5000    0.0000 C.ar    1  UNL1       -0.0470
      9 C           3.7320    0.5000    0.0000 C.ar    1  UNL1       -0.0470
     10 C           3.7320   -0.5000    0.0000 C.ar    1  UNL1       -0.0470
     11 C           2.8660    2.0000    0.0000 C.2     1  UNL1        0.3389
     12 C           2.8660   -2.0000    0.0000 C.2     1  UNL1        0.3389
     13 C           3.7320    3.5000    0.0000 C.3     1  UNL1        0.0820
     14 C           2.0000   -3.5000    0.0000 C.3     1  UNL1        0.0820
     15 H           1.4631    0.8100    0.0000 H       1  UNL1        0.0626
     16 H           1.4631   -0.8100    0.0000 H       1  UNL1        0.0626
     17 H           4.2690    0.8100    0.0000 H       1  UNL1        0.0626
     18 H           4.2690   -0.8100    0.0000 H       1  UNL1        0.0626
     19 H           4.3520    3.5000    0.0000 H       1  UNL1        0.0661
     20 H           3.7320    4.1200    0.0000 H       1  UNL1        0.0661
     21 H           3.1120    3.5000    0.0000 H       1  UNL1        0.0661
     22 H           1.3800   -3.5000    0.0000 H       1  UNL1        0.0661
     23 H           2.0000   -4.1200    0.0000 H       1  UNL1        0.0661
     24 H           2.6200   -3.5000    0.0000 H       1  UNL1        0.0661
@<TRIPOS>BOND
     1     1    11    1
     2     1    13    1
     3     2    12    1
     4     2    14    1
     5     3    11    2
     6     4    12    2
     7     5     7   ar
     8     5     9   ar
     9     5    11    1
    10     6     8   ar
    11     6    10   ar
    12     6    12    1
    13     7     8   ar
    14     7    15    1
    15     8    16    1
    16     9    10   ar
    17     9    17    1
    18    10    18    1
    19    13    19    1
    20    13    20    1
    21    13    21    1
    22    14    22    1
    23    14    23    1
    24    14    24    1
