@<TRIPOS>MOLECULE
IMPHY013300
 23 22 0 0 0
SMALL
GASTEIGER

@<TRIPOS>ATOM
      1 O           2.5369   -0.2500    0.0000 O.2     1  UNL1       -0.5143
      2 C           7.7331   -0.2500    0.0000 C.3     1  UNL1       -0.0499
      3 C           8.5991    0.2500    0.0000 C.3     1  UNL1       -0.0556
      4 C           6.8671    0.2500    0.0000 C.3     1  UNL1       -0.0345
      5 C           9.4651   -0.2500    0.0000 C.3     1  UNL1       -0.0653
      6 C           6.0010   -0.2500    0.0000 C.2     1  UNL1       -0.0839
      7 C           5.1350    0.2500    0.0000 C.2     1  UNL1       -0.0628
      8 C           4.2690   -0.2500    0.0000 C.2     1  UNL1       -0.0279
      9 C           3.4030    0.2500    0.0000 C.2     1  UNL1        0.0808
     10 H           7.3346   -0.7249    0.0000 H       1  UNL1        0.0268
     11 H           8.1316   -0.7249    0.0000 H       1  UNL1        0.0268
     12 H           8.9976    0.7249    0.0000 H       1  UNL1        0.0263
     13 H           8.2006    0.7249    0.0000 H       1  UNL1        0.0263
     14 H           7.2656    0.7249    0.0000 H       1  UNL1        0.0307
     15 H           6.4685    0.7249    0.0000 H       1  UNL1        0.0307
     16 H           9.1551   -0.7869    0.0000 H       1  UNL1        0.0230
     17 H          10.0021   -0.5600    0.0000 H       1  UNL1        0.0230
     18 H           9.7751    0.2869    0.0000 H       1  UNL1        0.0230
     19 H           6.0010   -0.8700    0.0000 H       1  UNL1        0.0572
     20 H           5.1350    0.8700    0.0000 H       1  UNL1        0.0615
     21 H           4.2690   -0.8700    0.0000 H       1  UNL1        0.0648
     22 H           3.4030    0.8700    0.0000 H       1  UNL1        0.1020
     23 H           2.0000    0.0600    0.0000 H       1  UNL1        0.2912
@<TRIPOS>BOND
     1     1     9    1
     2     1    23    1
     3     2     3    1
     4     2     4    1
     5     2    10    1
     6     2    11    1
     7     3     5    1
     8     3    12    1
     9     3    13    1
    10     4     6    1
    11     4    14    1
    12     4    15    1
    13     5    16    1
    14     5    17    1
    15     5    18    1
    16     6     7    2
    17     6    19    1
    18     7     8    1
    19     7    20    1
    20     8     9    2
    21     8    21    1
    22     9    22    1
