@<TRIPOS>MOLECULE
IMPHY015201
 23 22 0 0 0
SMALL
GASTEIGER

@<TRIPOS>ATOM
      1 S           4.0981    0.8175    0.0000 S.3     1  UNL1       -0.1599
      2 S           5.0981   -0.9145    0.0000 S.3     1  UNL1       -0.1599
      3 S           6.3301   -0.0485    0.0000 S.3     1  UNL1       -0.1729
      4 C           4.5981   -0.0485    0.0000 C.3     1  UNL1        0.0673
      5 C           3.7320   -0.5485    0.0000 C.3     1  UNL1       -0.0288
      6 C           5.4641    0.4515    0.0000 C.3     1  UNL1        0.0227
      7 C           2.8660   -0.0485    0.0000 C.3     1  UNL1       -0.0539
      8 C           5.4641    1.4515    0.0000 C.3     1  UNL1       -0.0515
      9 C           2.0000   -0.5485    0.0000 C.3     1  UNL1       -0.0652
     10 H           3.3335   -1.0235    0.0000 H       1  UNL1        0.0287
     11 H           4.1306   -1.0235    0.0000 H       1  UNL1        0.0287
     12 H           6.0010    0.7615    0.0000 H       1  UNL1        0.0428
     13 H           3.2646    0.4264    0.0000 H       1  UNL1        0.0263
     14 H           2.4675    0.4264    0.0000 H       1  UNL1        0.0263
     15 H           6.0841    1.4515    0.0000 H       1  UNL1        0.0241
     16 H           5.4641    2.0715    0.0000 H       1  UNL1        0.0241
     17 H           4.8441    1.4515    0.0000 H       1  UNL1        0.0241
     18 H           1.6900   -0.0116    0.0000 H       1  UNL1        0.0230
     19 H           1.4631   -0.8585    0.0000 H       1  UNL1        0.0230
     20 H           2.3100   -1.0855    0.0000 H       1  UNL1        0.0230
     21 H           3.4781    0.8175    0.0000 H       1  UNL1        0.1030
     22 H           4.7881   -1.4515    0.0000 H       1  UNL1        0.1030
     23 H           6.8671    0.2615    0.0000 H       1  UNL1        0.1020
@<TRIPOS>BOND
     1     1     4    1
     2     1    21    1
     3     2     4    1
     4     2    22    1
     5     3     6    1
     6     3    23    1
     7     4     5    1
     8     4     6    1
     9     5     7    1
    10     5    10    1
    11     5    11    1
    12     6     8    1
    13     6    12    1
    14     7     9    1
    15     7    13    1
    16     7    14    1
    17     8    15    1
    18     8    16    1
    19     8    17    1
    20     9    18    1
    21     9    19    1
    22     9    20    1
