@<TRIPOS>MOLECULE
IMPHY010939
 24 23 0 0 0
SMALL
GASTEIGER

@<TRIPOS>ATOM
      1 O           8.9282    0.6900    0.0000 O.2     1  UNL1       -0.2963
      2 C           4.5981    0.1900    0.0000 C.3     1  UNL1       -0.0313
      3 C           5.4641    0.6900    0.0000 C.3     1  UNL1       -0.0309
      4 C           3.7320    0.6900    0.0000 C.2     1  UNL1       -0.0877
      5 C           2.8660   -0.8100    0.0000 C.3     1  UNL1       -0.0376
      6 C           2.8660    0.1900    0.0000 C.2     1  UNL1       -0.0882
      7 C           6.3301    0.1900    0.0000 C.2     1  UNL1       -0.0807
      8 C           2.0000   -1.3100    0.0000 C.3     1  UNL1       -0.0618
      9 C           7.1962    0.6900    0.0000 C.2     1  UNL1       -0.0264
     10 C           8.0622    0.1900    0.0000 C.2     1  UNL1        0.1428
     11 H           4.1996   -0.2849    0.0000 H       1  UNL1        0.0310
     12 H           4.9966   -0.2849    0.0000 H       1  UNL1        0.0310
     13 H           5.8626    1.1650    0.0000 H       1  UNL1        0.0310
     14 H           5.0656    1.1650    0.0000 H       1  UNL1        0.0310
     15 H           3.7320    1.3100    0.0000 H       1  UNL1        0.0569
     16 H           3.0781   -1.3926    0.0000 H       1  UNL1        0.0305
     17 H           3.4766   -0.7023    0.0000 H       1  UNL1        0.0305
     18 H           2.3291    0.5000    0.0000 H       1  UNL1        0.0569
     19 H           6.3301   -0.4300    0.0000 H       1  UNL1        0.0573
     20 H           1.6900   -0.7731    0.0000 H       1  UNL1        0.0233
     21 H           1.4631   -1.6200    0.0000 H       1  UNL1        0.0233
     22 H           2.3100   -1.8469    0.0000 H       1  UNL1        0.0233
     23 H           7.1962    1.3100    0.0000 H       1  UNL1        0.0646
     24 H           8.0622   -0.4300    0.0000 H       1  UNL1        0.1075
@<TRIPOS>BOND
     1     1    10    2
     2     2     3    1
     3     2     4    1
     4     2    11    1
     5     2    12    1
     6     3     7    1
     7     3    13    1
     8     3    14    1
     9     4     6    2
    10     4    15    1
    11     5     6    1
    12     5     8    1
    13     5    16    1
    14     5    17    1
    15     6    18    1
    16     7     9    2
    17     7    19    1
    18     8    20    1
    19     8    21    1
    20     8    22    1
    21     9    10    1
    22     9    23    1
    23    10    24    1
