@<TRIPOS>MOLECULE
IMPHY017345
 27 26 0 0 0
SMALL
GASTEIGER

@<TRIPOS>ATOM
      1 C           4.5981   -0.3170    0.0000 C.3     1  UNL1       -0.0144
      2 C           3.7320   -0.8170    0.0000 C.3     1  UNL1       -0.0444
      3 C           5.4641    0.1830    0.0000 C.2     1  UNL1       -0.0741
      4 C           4.0981    0.5490    0.0000 C.3     1  UNL1       -0.0561
      5 C           5.0981   -1.1830    0.0000 C.3     1  UNL1       -0.0561
      6 C           2.8660   -0.3170    0.0000 C.3     1  UNL1       -0.0551
      7 C           6.3301   -0.3170    0.0000 C.3     1  UNL1       -0.0435
      8 C           2.0000   -0.8170    0.0000 C.3     1  UNL1       -0.0652
      9 C           5.4641    1.1830    0.0000 C.2     1  UNL1       -0.0992
     10 H           3.3335   -1.2919    0.0000 H       1  UNL1        0.0273
     11 H           4.1306   -1.2919    0.0000 H       1  UNL1        0.0273
     12 H           4.6350    0.8590    0.0000 H       1  UNL1        0.0238
     13 H           3.7881    1.0860    0.0000 H       1  UNL1        0.0238
     14 H           3.5611    0.2390    0.0000 H       1  UNL1        0.0238
     15 H           4.5611   -1.4930    0.0000 H       1  UNL1        0.0238
     16 H           5.4081   -1.7200    0.0000 H       1  UNL1        0.0238
     17 H           5.6350   -0.8730    0.0000 H       1  UNL1        0.0238
     18 H           3.2646    0.1580    0.0000 H       1  UNL1        0.0263
     19 H           2.4675    0.1580    0.0000 H       1  UNL1        0.0263
     20 H           6.0201   -0.8539    0.0000 H       1  UNL1        0.0274
     21 H           6.8671   -0.6270    0.0000 H       1  UNL1        0.0274
     22 H           6.6401    0.2199    0.0000 H       1  UNL1        0.0274
     23 H           1.6900   -0.2801    0.0000 H       1  UNL1        0.0230
     24 H           1.4631   -1.1270    0.0000 H       1  UNL1        0.0230
     25 H           2.3100   -1.3539    0.0000 H       1  UNL1        0.0230
     26 H           6.0010    1.4930    0.0000 H       1  UNL1        0.0534
     27 H           4.9272    1.4930    0.0000 H       1  UNL1        0.0534
@<TRIPOS>BOND
     1     1     2    1
     2     1     3    1
     3     1     4    1
     4     1     5    1
     5     2     6    1
     6     2    10    1
     7     2    11    1
     8     3     7    1
     9     3     9    2
    10     4    12    1
    11     4    13    1
    12     4    14    1
    13     5    15    1
    14     5    16    1
    15     5    17    1
    16     6     8    1
    17     6    18    1
    18     6    19    1
    19     7    20    1
    20     7    21    1
    21     7    22    1
    22     8    23    1
    23     8    24    1
    24     8    25    1
    25     9    26    1
    26     9    27    1
