@<TRIPOS>MOLECULE
IMPHY015522
 29 28 0 0 0
SMALL
GASTEIGER

@<TRIPOS>ATOM
      1 O           5.4641    0.7500    0.0000 O.3     1  UNL1       -0.4646
      2 O           6.3301   -0.7500    0.0000 O.2     1  UNL1       -0.2508
      3 C           8.0622    0.2500    0.0000 C.3     1  UNL1       -0.0367
      4 C           7.1962    0.7500    0.0000 C.3     1  UNL1        0.0473
      5 C           3.7320    0.7500    0.0000 C.3     1  UNL1       -0.0188
      6 C           8.9282    0.7500    0.0000 C.3     1  UNL1       -0.0622
      7 C           8.0622   -0.7500    0.0000 C.3     1  UNL1       -0.0622
      8 C           4.5981    0.2500    0.0000 C.3     1  UNL1        0.0924
      9 C           2.8660    0.2500    0.0000 C.3     1  UNL1       -0.0528
     10 C           6.3301    0.2500    0.0000 C.2     1  UNL1        0.3073
     11 C           2.0000    0.7500    0.0000 C.3     1  UNL1       -0.0652
     12 H           8.0622    0.8700    0.0000 H       1  UNL1        0.0301
     13 H           7.5947    1.2250    0.0000 H       1  UNL1        0.0380
     14 H           6.7976    1.2250    0.0000 H       1  UNL1        0.0380
     15 H           4.1306    1.2250    0.0000 H       1  UNL1        0.0298
     16 H           3.3335    1.2250    0.0000 H       1  UNL1        0.0298
     17 H           4.1996   -0.2249    0.0000 H       1  UNL1        0.0697
     18 H           4.9966   -0.2249    0.0000 H       1  UNL1        0.0697
     19 H           9.2382    0.2131    0.0000 H       1  UNL1        0.0232
     20 H           9.4651    1.0600    0.0000 H       1  UNL1        0.0232
     21 H           8.6182    1.2869    0.0000 H       1  UNL1        0.0232
     22 H           7.4422   -0.7500    0.0000 H       1  UNL1        0.0232
     23 H           8.0622   -1.3700    0.0000 H       1  UNL1        0.0232
     24 H           8.6822   -0.7500    0.0000 H       1  UNL1        0.0232
     25 H           2.4675   -0.2249    0.0000 H       1  UNL1        0.0264
     26 H           3.2646   -0.2249    0.0000 H       1  UNL1        0.0264
     27 H           2.3100    1.2869    0.0000 H       1  UNL1        0.0230
     28 H           1.4631    1.0600    0.0000 H       1  UNL1        0.0230
     29 H           1.6900    0.2131    0.0000 H       1  UNL1        0.0230
@<TRIPOS>BOND
     1     1     8    1
     2     1    10    1
     3     2    10    2
     4     3     4    1
     5     3     6    1
     6     3     7    1
     7     3    12    1
     8     4    10    1
     9     4    13    1
    10     4    14    1
    11     5     8    1
    12     5     9    1
    13     5    15    1
    14     5    16    1
    15     6    19    1
    16     6    20    1
    17     6    21    1
    18     7    22    1
    19     7    23    1
    20     7    24    1
    21     8    17    1
    22     8    18    1
    23     9    11    1
    24     9    25    1
    25     9    26    1
    26    11    27    1
    27    11    28    1
    28    11    29    1
