@<TRIPOS>MOLECULE
IMPHY010976
 33 35 0 0 0
SMALL
GASTEIGER

@<TRIPOS>ATOM
      1 O           3.9061   -1.5693    0.0000 O.3     1  UNL1       -0.4778
      2 O           5.6500    1.5069    0.0000 O.2     1  UNL1       -0.4214
      3 O           5.6660   -2.5346    0.0000 O.3     1  UNL1       -0.4914
      4 O           6.5442    3.0346    0.0000 O.2     1  UNL1       -0.2452
      5 C           3.0000   -1.0554    0.0000 C.3     1  UNL1        0.1237
      6 C           4.8000   -0.0346    0.0000 C.ar    1  UNL1        0.0631
      7 C           4.8000   -1.0346    0.0000 C.ar    1  UNL1        0.1738
      8 C           3.0000   -0.0138    0.0000 C.2     1  UNL1       -0.0408
      9 C           2.0000   -1.0593    0.0000 C.3     1  UNL1       -0.0215
     10 C           2.5033   -1.9234    0.0000 C.3     1  UNL1       -0.0215
     11 C           3.9061    0.5000    0.0000 C.2     1  UNL1       -0.0476
     12 C           5.6660    0.4654    0.0000 C.ar    1  UNL1        0.1499
     13 C           5.6660   -1.5346    0.0000 C.ar    1  UNL1        0.1629
     14 C           6.5320   -0.0346    0.0000 C.ar    1  UNL1        0.0219
     15 C           6.5320   -1.0346    0.0000 C.ar    1  UNL1       -0.0056
     16 C           7.4420    0.4722    0.0000 C.ar    1  UNL1       -0.0442
     17 C           7.4501    1.5138    0.0000 C.ar    1  UNL1        0.0236
     18 C           6.5480    2.0346    0.0000 C.ar    1  UNL1        0.3372
     19 C           6.5320   -3.0346    0.0000 C.3     1  UNL1        0.0790
     20 H           2.4643    0.2983    0.0000 H       1  UNL1        0.0611
     21 H           1.9652   -1.6155    0.0000 H       1  UNL1        0.0271
     22 H           2.1954   -2.4615    0.0000 H       1  UNL1        0.0271
     23 H           3.0415   -2.2313    0.0000 H       1  UNL1        0.0271
     24 H           1.9976   -0.4393    0.0000 H       1  UNL1        0.0271
     25 H           1.3800   -1.0617    0.0000 H       1  UNL1        0.0271
     26 H           2.0024   -1.6793    0.0000 H       1  UNL1        0.0271
     27 H           3.9132    1.1200    0.0000 H       1  UNL1        0.0624
     28 H           7.0690   -1.3446    0.0000 H       1  UNL1        0.0662
     29 H           7.9754    0.1560    0.0000 H       1  UNL1        0.0627
     30 H           7.9882    1.8218    0.0000 H       1  UNL1        0.0689
     31 H           6.2220   -3.5716    0.0000 H       1  UNL1        0.0660
     32 H           7.0690   -3.3446    0.0000 H       1  UNL1        0.0660
     33 H           6.8420   -2.4977    0.0000 H       1  UNL1        0.0660
@<TRIPOS>BOND
     1     1     5    1
     2     1     7    1
     3     2    12   ar
     4     2    18   ar
     5     3    13    1
     6     3    19    1
     7     4    18    2
     8     5     8    1
     9     5     9    1
    10     5    10    1
    11     6     7   ar
    12     6    11    1
    13     6    12   ar
    14     7    13   ar
    15     8    11    2
    16     8    20    1
    17     9    24    1
    18     9    25    1
    19     9    26    1
    20    10    21    1
    21    10    22    1
    22    10    23    1
    23    11    27    1
    24    12    14   ar
    25    13    15   ar
    26    14    15   ar
    27    14    16   ar
    28    15    28    1
    29    16    17   ar
    30    16    29    1
    31    17    18   ar
    32    17    30    1
    33    19    31    1
    34    19    32    1
    35    19    33    1
