@<TRIPOS>MOLECULE
IMPHY013675
 53 56 0 0 0
SMALL
GASTEIGER

@<TRIPOS>ATOM
      1 O           7.9875    1.8878    0.0000 O.3     1  UNL1       -0.4810
      2 O           9.1960   -3.3697    0.0000 O.3     1  UNL1       -0.3891
      3 N           4.5124    0.9712    0.0000 N.ar    1  UNL1       -0.3536
      4 C           8.3170    0.8996    0.0000 C.3     1  UNL1        0.1263
      5 C           9.0627    0.2334    0.0000 C.3     1  UNL1       -0.0094
      6 C           8.8585   -0.7456    0.0000 C.3     1  UNL1       -0.0466
      7 C           9.6043   -1.4118    0.0000 C.3     1  UNL1       -0.0244
      8 C           9.4001   -2.3908    0.0000 C.3     1  UNL1        0.0605
      9 C           7.6200    0.1255    0.0000 C.2     1  UNL1       -0.0406
     10 C           6.2962    1.3455    0.0000 C.ar    1  UNL1        0.0407
     11 C           6.9654    2.0886    0.0000 C.ar    1  UNL1        0.1337
     12 C           9.2668    1.2123    0.0000 C.3     1  UNL1       -0.0212
     13 C           5.3181    1.5534    0.0000 C.ar    1  UNL1        0.0582
     14 C           6.6028    0.3500    0.0000 C.2     1  UNL1       -0.0493
     15 C           5.0091    2.5044    0.0000 C.ar    1  UNL1        0.0084
     16 C           6.6564    3.0397    0.0000 C.ar    1  UNL1       -0.0075
     17 C           4.0150    2.5018    0.0000 C.ar    1  UNL1        0.0074
     18 C           5.6782    3.2476    0.0000 C.ar    1  UNL1       -0.0456
     19 C          10.3791   -2.5949    0.0000 C.3     1  UNL1       -0.0363
     20 C           8.4212   -2.1866    0.0000 C.3     1  UNL1       -0.0363
     21 C           3.7086    1.5562    0.0000 C.ar    1  UNL1        0.0475
     22 C           7.3255    3.7828    0.0000 C.3     1  UNL1       -0.0362
     23 C           3.3334    3.2813    0.0000 C.ar    1  UNL1       -0.0520
     24 C           2.6994    1.3244    0.0000 C.ar    1  UNL1       -0.0378
     25 C           2.3191    3.0730    0.0000 C.ar    1  UNL1       -0.0611
     26 C           2.0000    2.0879    0.0000 C.ar    1  UNL1       -0.0598
     27 H           9.6384    0.0033    0.0000 H       1  UNL1        0.0307
     28 H           9.3892    0.7604    0.0000 H       1  UNL1        0.0307
     29 H           8.2828   -0.5155    0.0000 H       1  UNL1        0.0268
     30 H           8.5320   -1.2726    0.0000 H       1  UNL1        0.0268
     31 H          10.1800   -1.6419    0.0000 H       1  UNL1        0.0293
     32 H           9.9308   -0.8848    0.0000 H       1  UNL1        0.0293
     33 H           7.8093   -0.4648    0.0000 H       1  UNL1        0.0611
     34 H           9.4607    0.6234    0.0000 H       1  UNL1        0.0271
     35 H           9.8557    1.4062    0.0000 H       1  UNL1        0.0271
     36 H           9.0730    1.8012    0.0000 H       1  UNL1        0.0271
     37 H           6.1826   -0.1060    0.0000 H       1  UNL1        0.0623
     38 H           5.4866    3.8372    0.0000 H       1  UNL1        0.0628
     39 H           4.5113    0.3512    0.0000 H       1  UNL1        0.1659
     40 H          10.2525   -3.2019    0.0000 H       1  UNL1        0.0257
     41 H          10.9860   -2.7215    0.0000 H       1  UNL1        0.0257
     42 H          10.5056   -1.9880    0.0000 H       1  UNL1        0.0257
     43 H           8.5478   -1.5797    0.0000 H       1  UNL1        0.0257
     44 H           7.8142   -2.0601    0.0000 H       1  UNL1        0.0257
     45 H           8.2946   -2.7936    0.0000 H       1  UNL1        0.0257
     46 H           7.7862    3.3679    0.0000 H       1  UNL1        0.0279
     47 H           7.7403    4.2436    0.0000 H       1  UNL1        0.0279
     48 H           6.8647    4.1977    0.0000 H       1  UNL1        0.0279
     49 H           9.6583   -3.7828    0.0000 H       1  UNL1        0.2101
     50 H           3.5313    3.8689    0.0000 H       1  UNL1        0.0624
     51 H           2.5152    0.7324    0.0000 H       1  UNL1        0.0638
     52 H           1.9056    3.5350    0.0000 H       1  UNL1        0.0618
     53 H           1.3942    1.9562    0.0000 H       1  UNL1        0.0618
@<TRIPOS>BOND
     1     1     4    1
     2     1    11    1
     3     2     8    1
     4     2    49    1
     5     3    13   ar
     6     3    21   ar
     7     3    39    1
     8     4     5    1
     9     4     9    1
    10     4    12    1
    11     5     6    1
    12     5    27    1
    13     5    28    1
    14     6     7    1
    15     6    29    1
    16     6    30    1
    17     7     8    1
    18     7    31    1
    19     7    32    1
    20     8    19    1
    21     8    20    1
    22     9    14    2
    23     9    33    1
    24    10    11   ar
    25    10    13   ar
    26    10    14    1
    27    11    16   ar
    28    12    34    1
    29    12    35    1
    30    12    36    1
    31    13    15   ar
    32    14    37    1
    33    15    17   ar
    34    15    18   ar
    35    16    18   ar
    36    16    22    1
    37    17    21   ar
    38    17    23   ar
    39    18    38    1
    40    19    40    1
    41    19    41    1
    42    19    42    1
    43    20    43    1
    44    20    44    1
    45    20    45    1
    46    21    24   ar
    47    22    46    1
    48    22    47    1
    49    22    48    1
    50    23    25   ar
    51    23    50    1
    52    24    26   ar
    53    24    51    1
    54    25    26   ar
    55    25    52    1
    56    26    53    1
