@<TRIPOS>MOLECULE
IMPHY013122
 57 59 0 0 0
SMALL
GASTEIGER

@<TRIPOS>ATOM
      1 O           5.4071    0.0721    0.0000 O.3     1  UNL1       -0.3636
      2 O           5.4602    4.4683    0.0000 O.3     1  UNL1       -0.4913
      3 O           6.3301   -3.5156    0.0000 O.3     1  UNL1       -0.4913
      4 O           8.2627    2.4322    0.0000 O.3     1  UNL1       -0.4913
      5 O           2.8660   -3.5156    0.0000 O.3     1  UNL1       -0.4913
      6 O           7.4492    4.2593    0.0000 O.3     1  UNL1       -0.5009
      7 O           4.5981   -4.5156    0.0000 O.3     1  UNL1       -0.5009
      8 C           4.0981    1.0232    0.0000 C.3     1  UNL1       -0.0081
      9 C           3.7891    0.0721    0.0000 C.3     1  UNL1       -0.0081
     10 C           5.0981    1.0232    0.0000 C.3     1  UNL1        0.0875
     11 C           4.5981   -0.5157    0.0000 C.3     1  UNL1        0.0875
     12 C           3.5103    1.8322    0.0000 C.3     1  UNL1       -0.0594
     13 C           2.8380   -0.2369    0.0000 C.3     1  UNL1       -0.0594
     14 C           5.6859    1.8322    0.0000 C.ar    1  UNL1       -0.0115
     15 C           4.5981   -1.5156    0.0000 C.ar    1  UNL1       -0.0115
     16 C           6.6804    1.7277    0.0000 C.ar    1  UNL1       -0.0104
     17 C           3.7320   -2.0156    0.0000 C.ar    1  UNL1       -0.0104
     18 C           5.2791    2.7458    0.0000 C.ar    1  UNL1       -0.0104
     19 C           5.4641   -2.0156    0.0000 C.ar    1  UNL1       -0.0104
     20 C           5.8669    3.5548    0.0000 C.ar    1  UNL1        0.1653
     21 C           5.4641   -3.0156    0.0000 C.ar    1  UNL1        0.1653
     22 C           7.2682    2.5367    0.0000 C.ar    1  UNL1        0.1653
     23 C           3.7320   -3.0156    0.0000 C.ar    1  UNL1        0.1653
     24 C           6.8614    3.4502    0.0000 C.ar    1  UNL1        0.2010
     25 C           4.5981   -3.5156    0.0000 C.ar    1  UNL1        0.2010
     26 C           4.4656    4.5728    0.0000 C.3     1  UNL1        0.0790
     27 C           7.1962   -3.0156    0.0000 C.3     1  UNL1        0.0790
     28 C           8.6694    1.5186    0.0000 C.3     1  UNL1        0.0790
     29 C           2.0000   -3.0156    0.0000 C.3     1  UNL1        0.0790
     30 H           4.3796    1.5756    0.0000 H       1  UNL1        0.0330
     31 H           3.3506    0.5105    0.0000 H       1  UNL1        0.0330
     32 H           5.7104    0.9262    0.0000 H       1  UNL1        0.0649
     33 H           5.1505   -0.7971    0.0000 H       1  UNL1        0.0649
     34 H           4.0119    2.1966    0.0000 H       1  UNL1        0.0233
     35 H           3.1459    2.3338    0.0000 H       1  UNL1        0.0233
     36 H           3.0087    1.4678    0.0000 H       1  UNL1        0.0233
     37 H           2.6464    0.3528    0.0000 H       1  UNL1        0.0233
     38 H           2.2484   -0.4285    0.0000 H       1  UNL1        0.0233
     39 H           3.0296   -0.8265    0.0000 H       1  UNL1        0.0233
     40 H           6.9326    1.1613    0.0000 H       1  UNL1        0.0659
     41 H           3.1951   -1.7056    0.0000 H       1  UNL1        0.0659
     42 H           4.6625    2.8106    0.0000 H       1  UNL1        0.0659
     43 H           6.0010   -1.7056    0.0000 H       1  UNL1        0.0659
     44 H           7.1970    4.8257    0.0000 H       1  UNL1        0.2924
     45 H           4.0611   -4.8257    0.0000 H       1  UNL1        0.2924
     46 H           4.5305    5.1894    0.0000 H       1  UNL1        0.0660
     47 H           3.8490    4.6376    0.0000 H       1  UNL1        0.0660
     48 H           4.4008    3.9562    0.0000 H       1  UNL1        0.0660
     49 H           7.5062   -3.5526    0.0000 H       1  UNL1        0.0660
     50 H           7.7331   -2.7056    0.0000 H       1  UNL1        0.0660
     51 H           6.8862   -2.4787    0.0000 H       1  UNL1        0.0660
     52 H           8.1030    1.2664    0.0000 H       1  UNL1        0.0660
     53 H           8.9216    0.9522    0.0000 H       1  UNL1        0.0660
     54 H           9.2358    1.7708    0.0000 H       1  UNL1        0.0660
     55 H           2.3100   -2.4787    0.0000 H       1  UNL1        0.0660
     56 H           1.4631   -2.7056    0.0000 H       1  UNL1        0.0660
     57 H           1.6900   -3.5526    0.0000 H       1  UNL1        0.0660
@<TRIPOS>BOND
     1     1    10    1
     2     1    11    1
     3     2    20    1
     4     2    26    1
     5     3    21    1
     6     3    27    1
     7     4    22    1
     8     4    28    1
     9     5    23    1
    10     5    29    1
    11     6    24    1
    12     6    44    1
    13     7    25    1
    14     7    45    1
    15     8     9    1
    16     8    10    1
    17     8    12    1
    18     8    30    1
    19     9    11    1
    20     9    13    1
    21     9    31    1
    22    10    14    1
    23    10    32    1
    24    11    15    1
    25    11    33    1
    26    12    34    1
    27    12    35    1
    28    12    36    1
    29    13    37    1
    30    13    38    1
    31    13    39    1
    32    14    16   ar
    33    14    18   ar
    34    15    17   ar
    35    15    19   ar
    36    16    22   ar
    37    16    40    1
    38    17    23   ar
    39    17    41    1
    40    18    20   ar
    41    18    42    1
    42    19    21   ar
    43    19    43    1
    44    20    24   ar
    45    21    25   ar
    46    22    24   ar
    47    23    25   ar
    48    26    46    1
    49    26    47    1
    50    26    48    1
    51    27    49    1
    52    27    50    1
    53    27    51    1
    54    28    52    1
    55    28    53    1
    56    28    54    1
    57    29    55    1
    58    29    56    1
    59    29    57    1
