@<TRIPOS>MOLECULE
IMPHY016410
 37 38 0 0 0
SMALL
GASTEIGER

@<TRIPOS>ATOM
      1 O           3.7320   -0.5000    0.0000 O.3     1  UNL1       -0.4566
      2 O           4.5981    1.0000    0.0000 O.2     1  UNL1       -0.2504
      3 O           3.7320    2.5000    0.0000 O.2     1  UNL1       -0.2971
      4 C           7.1967   -1.5000    0.0000 C.3     1  UNL1       -0.0283
      5 C           6.3301   -1.0000    0.0000 C.3     1  UNL1       -0.0283
      6 C           6.3301   -2.0000    0.0000 C.3     1  UNL1       -0.0284
      7 C           5.4641   -0.5000    0.0000 C.3     1  UNL1       -0.0081
      8 C           5.4641   -2.5000    0.0000 C.3     1  UNL1       -0.0250
      9 C           7.6967   -2.3660    0.0000 C.3     1  UNL1       -0.0593
     10 C           7.6967   -0.6340    0.0000 C.3     1  UNL1       -0.0593
     11 C           4.5981   -1.0000    0.0000 C.3     1  UNL1        0.1242
     12 C           4.5981   -2.0000    0.0000 C.2     1  UNL1       -0.0364
     13 C           3.7320   -2.5000    0.0000 C.2     1  UNL1       -0.0960
     14 C           3.7320    0.5000    0.0000 C.2     1  UNL1        0.3149
     15 C           2.8660    1.0000    0.0000 C.3     1  UNL1        0.1029
     16 C           2.8660    2.0000    0.0000 C.2     1  UNL1        0.1409
     17 C           2.0000    2.5000    0.0000 C.3     1  UNL1       -0.0055
     18 H           6.6401   -0.4630    0.0000 H       1  UNL1        0.0310
     19 H           6.6401   -2.5370    0.0000 H       1  UNL1        0.0312
     20 H           5.8626   -0.0251    0.0000 H       1  UNL1        0.0307
     21 H           5.0656   -0.0251    0.0000 H       1  UNL1        0.0307
     22 H           5.0656   -2.9750    0.0000 H       1  UNL1        0.0314
     23 H           5.8626   -2.9750    0.0000 H       1  UNL1        0.0314
     24 H           7.1597   -2.6760    0.0000 H       1  UNL1        0.0235
     25 H           8.0067   -2.9030    0.0000 H       1  UNL1        0.0235
     26 H           8.2336   -2.0560    0.0000 H       1  UNL1        0.0235
     27 H           8.2336   -0.9440    0.0000 H       1  UNL1        0.0235
     28 H           8.0067   -0.0970    0.0000 H       1  UNL1        0.0235
     29 H           7.1597   -0.3240    0.0000 H       1  UNL1        0.0235
     30 H           4.5981   -0.3800    0.0000 H       1  UNL1        0.0782
     31 H           3.1951   -2.1900    0.0000 H       1  UNL1        0.0536
     32 H           3.7320   -3.1200    0.0000 H       1  UNL1        0.0536
     33 H           2.2554    1.1077    0.0000 H       1  UNL1        0.0455
     34 H           2.6540    0.4174    0.0000 H       1  UNL1        0.0455
     35 H           2.3100    3.0369    0.0000 H       1  UNL1        0.0306
     36 H           1.4631    2.8100    0.0000 H       1  UNL1        0.0306
     37 H           1.6900    1.9631    0.0000 H       1  UNL1        0.0306
@<TRIPOS>BOND
     1     1    11    1
     2     1    14    1
     3     2    14    2
     4     3    16    2
     5     4     5    1
     6     4     6    1
     7     4     9    1
     8     4    10    1
     9     5     6    1
    10     5     7    1
    11     5    18    1
    12     6     8    1
    13     6    19    1
    14     7    11    1
    15     7    20    1
    16     7    21    1
    17     8    12    1
    18     8    22    1
    19     8    23    1
    20     9    24    1
    21     9    25    1
    22     9    26    1
    23    10    27    1
    24    10    28    1
    25    10    29    1
    26    11    12    1
    27    11    30    1
    28    12    13    2
    29    13    31    1
    30    13    32    1
    31    14    15    1
    32    15    16    1
    33    15    33    1
    34    15    34    1
    35    16    17    1
    36    17    35    1
    37    17    36    1
    38    17    37    1
