@<TRIPOS>MOLECULE
IMPHY011397
 77 80 0 0 0
SMALL
GASTEIGER

@<TRIPOS>ATOM
      1 O           5.6489   -4.0372    0.0000 O.3     1  UNL1       -0.3875
      2 O           2.0000   -3.0203    0.0000 O.2     1  UNL1       -0.2927
      3 C           7.3931    0.0321    0.0000 C.3     1  UNL1       -0.0256
      4 C           7.3931   -0.9679    0.0000 C.3     1  UNL1       -0.0322
      5 C           6.5271   -1.4679    0.0000 C.3     1  UNL1       -0.0314
      6 C           5.6610   -0.9679    0.0000 C.3     1  UNL1       -0.0286
      7 C           8.3393    0.3368    0.0000 C.3     1  UNL1       -0.0294
      8 C           6.5271    0.5321    0.0000 C.3     1  UNL1       -0.0468
      9 C           4.7510   -1.4748    0.0000 C.3     1  UNL1       -0.0048
     10 C           8.3393   -1.2727    0.0000 C.3     1  UNL1       -0.0492
     11 C           5.6610    0.0321    0.0000 C.3     1  UNL1       -0.0487
     12 C           8.9229   -0.4679    0.0000 C.3     1  UNL1       -0.0489
     13 C           6.5431   -2.5094    0.0000 C.3     1  UNL1       -0.0196
     14 C           7.3931    1.0321    0.0000 C.3     1  UNL1       -0.0590
     15 C           4.7430   -2.5164    0.0000 C.2     1  UNL1       -0.0320
     16 C           5.6451   -3.0372    0.0000 C.3     1  UNL1        0.0774
     17 C           8.6500    1.2873    0.0000 C.3     1  UNL1       -0.0224
     18 C           3.8242   -0.9107    0.0000 C.3     1  UNL1       -0.0366
     19 C           4.7587   -0.4748    0.0000 C.3     1  UNL1       -0.0555
     20 C           2.8763   -1.4386    0.0000 C.3     1  UNL1        0.0107
     21 C           3.8076   -3.0661    0.0000 C.2     1  UNL1       -0.0170
     22 C           7.9821    2.0316    0.0000 C.3     1  UNL1       -0.0587
     23 C           9.6285    1.4936    0.0000 C.2     1  UNL1       -0.0845
     24 C           2.8680   -2.5236    0.0000 C.2     1  UNL1        0.1562
     25 C           9.9391    2.4441    0.0000 C.2     1  UNL1       -0.0843
     26 C          10.9176    2.6503    0.0000 C.3     1  UNL1       -0.0208
     27 C          11.2283    3.6008    0.0000 C.3     1  UNL1       -0.0405
     28 C          11.5855    1.9060    0.0000 C.3     1  UNL1       -0.0494
     29 C          12.2068    3.8070    0.0000 C.3     1  UNL1       -0.0621
     30 C          10.5605    4.3451    0.0000 C.3     1  UNL1       -0.0621
     31 C          12.5640    2.1122    0.0000 C.3     1  UNL1       -0.0647
     32 H           7.4587   -1.5844    0.0000 H       1  UNL1        0.0309
     33 H           7.0664   -1.7738    0.0000 H       1  UNL1        0.0307
     34 H           6.1980   -0.6579    0.0000 H       1  UNL1        0.0312
     35 H           8.9518    0.4330    0.0000 H       1  UNL1        0.0312
     36 H           6.9256    1.0070    0.0000 H       1  UNL1        0.0271
     37 H           6.1285    1.0070    0.0000 H       1  UNL1        0.0271
     38 H           8.0883   -1.8396    0.0000 H       1  UNL1        0.0268
     39 H           8.8767   -1.5819    0.0000 H       1  UNL1        0.0268
     40 H           5.4490    0.6147    0.0000 H       1  UNL1        0.0268
     41 H           5.0504   -0.0756    0.0000 H       1  UNL1        0.0268
     42 H           9.3838   -0.8827    0.0000 H       1  UNL1        0.0268
     43 H           9.3838   -0.0532    0.0000 H       1  UNL1        0.0268
     44 H           6.7612   -3.0898    0.0000 H       1  UNL1        0.0296
     45 H           7.1523   -2.3939    0.0000 H       1  UNL1        0.0296
     46 H           8.0131    1.0321    0.0000 H       1  UNL1        0.0235
     47 H           7.3931    1.6521    0.0000 H       1  UNL1        0.0235
     48 H           6.7731    1.0321    0.0000 H       1  UNL1        0.0235
     49 H           5.1087   -3.3482    0.0000 H       1  UNL1        0.0641
     50 H           8.0433    1.1595    0.0000 H       1  UNL1        0.0343
     51 H           4.2324   -0.4440    0.0000 H       1  UNL1        0.0278
     52 H           3.4343   -0.4287    0.0000 H       1  UNL1        0.0278
     53 H           5.3787   -0.4796    0.0000 H       1  UNL1        0.0238
     54 H           4.7635    0.1452    0.0000 H       1  UNL1        0.0238
     55 H           4.1388   -0.4700    0.0000 H       1  UNL1        0.0238
     56 H           2.6718   -0.8534    0.0000 H       1  UNL1        0.0345
     57 H           2.2647   -1.5400    0.0000 H       1  UNL1        0.0345
     58 H           3.8100   -3.6861    0.0000 H       1  UNL1        0.0653
     59 H           8.4436    2.4457    0.0000 H       1  UNL1        0.0235
     60 H           7.5681    2.4931    0.0000 H       1  UNL1        0.0235
     61 H           7.5207    1.6176    0.0000 H       1  UNL1        0.0235
     62 H          10.0425    1.0321    0.0000 H       1  UNL1        0.0572
     63 H           6.1871   -4.3451    0.0000 H       1  UNL1        0.2102
     64 H           9.5251    2.9055    0.0000 H       1  UNL1        0.0572
     65 H          10.7250    2.0610    0.0000 H       1  UNL1        0.0345
     66 H          11.4209    4.1901    0.0000 H       1  UNL1        0.0301
     67 H          11.0591    1.5783    0.0000 H       1  UNL1        0.0268
     68 H          11.8167    1.3307    0.0000 H       1  UNL1        0.0268
     69 H          11.0219    4.7592    0.0000 H       1  UNL1        0.0233
     70 H          10.1464    4.8066    0.0000 H       1  UNL1        0.0233
     71 H          10.0990    3.9310    0.0000 H       1  UNL1        0.0233
     72 H          12.3347    3.2003    0.0000 H       1  UNL1        0.0233
     73 H          12.8135    3.9349    0.0000 H       1  UNL1        0.0233
     74 H          12.0790    4.4137    0.0000 H       1  UNL1        0.0233
     75 H          12.6918    1.5055    0.0000 H       1  UNL1        0.0230
     76 H          13.1707    2.2401    0.0000 H       1  UNL1        0.0230
     77 H          12.4361    2.7189    0.0000 H       1  UNL1        0.0230
@<TRIPOS>BOND
     1     1    16    1
     2     1    63    1
     3     2    24    2
     4     3     4    1
     5     3     7    1
     6     3     8    1
     7     3    14    1
     8     4     5    1
     9     4    10    1
    10     4    32    1
    11     5     6    1
    12     5    13    1
    13     5    33    1
    14     6     9    1
    15     6    11    1
    16     6    34    1
    17     7    12    1
    18     7    17    1
    19     7    35    1
    20     8    11    1
    21     8    36    1
    22     8    37    1
    23     9    15    1
    24     9    18    1
    25     9    19    1
    26    10    12    1
    27    10    38    1
    28    10    39    1
    29    11    40    1
    30    11    41    1
    31    12    42    1
    32    12    43    1
    33    13    16    1
    34    13    44    1
    35    13    45    1
    36    14    46    1
    37    14    47    1
    38    14    48    1
    39    15    16    1
    40    15    21    2
    41    16    49    1
    42    17    22    1
    43    17    23    1
    44    17    50    1
    45    18    20    1
    46    18    51    1
    47    18    52    1
    48    19    53    1
    49    19    54    1
    50    19    55    1
    51    20    24    1
    52    20    56    1
    53    20    57    1
    54    21    24    1
    55    21    58    1
    56    22    59    1
    57    22    60    1
    58    22    61    1
    59    23    25    2
    60    23    62    1
    61    25    26    1
    62    25    64    1
    63    26    27    1
    64    26    28    1
    65    26    65    1
    66    27    29    1
    67    27    30    1
    68    27    66    1
    69    28    31    1
    70    28    67    1
    71    28    68    1
    72    29    72    1
    73    29    73    1
    74    29    74    1
    75    30    69    1
    76    30    70    1
    77    30    71    1
    78    31    75    1
    79    31    76    1
    80    31    77    1
