@<TRIPOS>MOLECULE
IMPHY013248
 40 41 0 0 0
SMALL
GASTEIGER

@<TRIPOS>ATOM
      1 O           8.7694   -0.8334    0.0000 O.3     1  UNL1       -0.4574
      2 O          10.3490   -0.0208    0.0000 O.2     1  UNL1       -0.2453
      3 O           2.6200    1.6727    0.0000 O.3     1  UNL1       -0.3920
      4 C           7.8217   -0.5334    0.0000 C.3     1  UNL1        0.1112
      5 C           7.8167    0.4666    0.0000 C.3     1  UNL1        0.0309
      6 C           7.0430   -1.1608    0.0000 C.3     1  UNL1       -0.0088
      7 C           6.0670   -0.9431    0.0000 C.3     1  UNL1       -0.0194
      8 C           7.0318    1.0862    0.0000 C.3     1  UNL1       -0.0241
      9 C           5.6286   -0.0443    0.0000 C.2     1  UNL1       -0.0704
     10 C           6.0580    0.8588    0.0000 C.2     1  UNL1       -0.0838
     11 C           8.7614    0.7760    0.0000 C.2     1  UNL1        0.0364
     12 C           4.6286   -0.0493    0.0000 C.3     1  UNL1       -0.0292
     13 C           5.4474   -1.7281    0.0000 C.3     1  UNL1       -0.0586
     14 C           9.3490   -0.0258    0.0000 C.2     1  UNL1        0.3353
     15 C           4.1243    0.8142    0.0000 C.3     1  UNL1       -0.0234
     16 C           3.1243    0.8092    0.0000 C.3     1  UNL1        0.0527
     17 C           9.0673    1.7281    0.0000 C.2     1  UNL1       -0.0883
     18 C           2.6286   -0.0593    0.0000 C.3     1  UNL1       -0.0389
     19 H           7.9787   -1.3688    0.0000 H       1  UNL1        0.0740
     20 H           7.9654    1.3035    0.0000 H       1  UNL1        0.0390
     21 H           6.7768   -1.7207    0.0000 H       1  UNL1        0.0307
     22 H           7.5296   -1.5449    0.0000 H       1  UNL1        0.0307
     23 H           5.4505   -0.8768    0.0000 H       1  UNL1        0.0344
     24 H           7.5146    1.4751    0.0000 H       1  UNL1        0.0314
     25 H           6.7600    1.6434    0.0000 H       1  UNL1        0.0314
     26 H           5.6690    1.3416    0.0000 H       1  UNL1        0.0572
     27 H           4.0471   -0.2643    0.0000 H       1  UNL1        0.0311
     28 H           4.7393   -0.6594    0.0000 H       1  UNL1        0.0311
     29 H           4.9607   -1.3439    0.0000 H       1  UNL1        0.0235
     30 H           5.0632   -2.2147    0.0000 H       1  UNL1        0.0235
     31 H           5.9340   -2.1122    0.0000 H       1  UNL1        0.0235
     32 H           4.7058    1.0291    0.0000 H       1  UNL1        0.0293
     33 H           4.0136    1.4242    0.0000 H       1  UNL1        0.0293
     34 H           2.5043    0.8061    0.0000 H       1  UNL1        0.0590
     35 H           9.6733    1.8590    0.0000 H       1  UNL1        0.0540
     36 H           8.6510    2.1875    0.0000 H       1  UNL1        0.0540
     37 H           2.0902    0.2480    0.0000 H       1  UNL1        0.0254
     38 H           2.3213   -0.5978    0.0000 H       1  UNL1        0.0254
     39 H           3.1671   -0.3666    0.0000 H       1  UNL1        0.0254
     40 H           2.0000    1.6696    0.0000 H       1  UNL1        0.2098
@<TRIPOS>BOND
     1     1     4    1
     2     1    14    1
     3     2    14    2
     4     3    16    1
     5     3    40    1
     6     4     5    1
     7     4     6    1
     8     4    19    1
     9     5     8    1
    10     5    11    1
    11     5    20    1
    12     6     7    1
    13     6    21    1
    14     6    22    1
    15     7     9    1
    16     7    13    1
    17     7    23    1
    18     8    10    1
    19     8    24    1
    20     8    25    1
    21     9    10    2
    22     9    12    1
    23    10    26    1
    24    11    14    1
    25    11    17    2
    26    12    15    1
    27    12    27    1
    28    12    28    1
    29    13    29    1
    30    13    30    1
    31    13    31    1
    32    15    16    1
    33    15    32    1
    34    15    33    1
    35    16    18    1
    36    16    34    1
    37    17    35    1
    38    17    36    1
    39    18    37    1
    40    18    38    1
    41    18    39    1
