@<TRIPOS>MOLECULE
IMPHY015171
 23 24 0 0 0
SMALL
GASTEIGER

@<TRIPOS>ATOM
      1 O           4.5986    0.2500    0.0000 O.3     1  UNL1       -0.3648
      2 C           3.7320    0.7500    0.0000 C.3     1  UNL1        0.0935
      3 C           3.7320   -0.2500    0.0000 C.3     1  UNL1        0.0907
      4 C           2.8660   -0.7500    0.0000 C.3     1  UNL1       -0.0148
      5 C           2.8660    1.2500    0.0000 C.3     1  UNL1       -0.0215
      6 C           2.0000   -0.2500    0.0000 C.3     1  UNL1       -0.0479
      7 C           2.0000    0.7500    0.0000 C.3     1  UNL1       -0.0501
      8 C           3.7320    1.7500    0.0000 C.3     1  UNL1       -0.0333
      9 C           2.8660   -1.7500    0.0000 C.3     1  UNL1       -0.0600
     10 H           4.0420   -0.7870    0.0000 H       1  UNL1        0.0627
     11 H           3.4030   -1.0600    0.0000 H       1  UNL1        0.0324
     12 H           3.2646    1.7250    0.0000 H       1  UNL1        0.0294
     13 H           2.4675    1.7250    0.0000 H       1  UNL1        0.0294
     14 H           1.3894   -0.1423    0.0000 H       1  UNL1        0.0269
     15 H           1.7880   -0.8326    0.0000 H       1  UNL1        0.0269
     16 H           1.7880    1.3326    0.0000 H       1  UNL1        0.0266
     17 H           1.3894    0.6423    0.0000 H       1  UNL1        0.0266
     18 H           4.3520    1.7500    0.0000 H       1  UNL1        0.0258
     19 H           3.7320    2.3700    0.0000 H       1  UNL1        0.0258
     20 H           3.1120    1.7500    0.0000 H       1  UNL1        0.0258
     21 H           2.2460   -1.7500    0.0000 H       1  UNL1        0.0233
     22 H           2.8660   -2.3700    0.0000 H       1  UNL1        0.0233
     23 H           3.4860   -1.7500    0.0000 H       1  UNL1        0.0233
@<TRIPOS>BOND
     1     1     2    1
     2     1     3    1
     3     2     3    1
     4     2     5    1
     5     2     8    1
     6     3     4    1
     7     3    10    1
     8     4     6    1
     9     4     9    1
    10     4    11    1
    11     5     7    1
    12     5    12    1
    13     5    13    1
    14     6     7    1
    15     6    14    1
    16     6    15    1
    17     7    16    1
    18     7    17    1
    19     8    18    1
    20     8    19    1
    21     8    20    1
    22     9    21    1
    23     9    22    1
    24     9    23    1
