@<TRIPOS>MOLECULE
IMPHY015117
 79 86 0 0 0
SMALL
GASTEIGER

@<TRIPOS>ATOM
      1 O           5.5440    1.0227    0.0000 O.3     1  UNL1       -0.4482
      2 O           5.5440    3.0920    0.0000 O.3     1  UNL1       -0.4449
      3 O           3.7841    4.0573    0.0000 O.3     1  UNL1       -0.4913
      4 O           8.0095   -3.8817    0.0000 O.3     1  UNL1       -0.4945
      5 O           7.7201   -1.2736    0.0000 O.3     1  UNL1       -0.5062
      6 N           2.9021   -0.5119    0.0000 N.3     1  UNL1       -0.2977
      7 N           9.9133    1.5475    0.0000 N.3     1  UNL1       -0.2978
      8 C           3.8001    0.0158    0.0000 C.3     1  UNL1        0.0432
      9 C           9.0264    1.0445    0.0000 C.3     1  UNL1        0.0397
     10 C           3.7841    1.0573    0.0000 C.ar    1  UNL1        0.0194
     11 C           8.1513    1.5679    0.0000 C.ar    1  UNL1       -0.0231
     12 C           2.9180    1.5573    0.0000 C.ar    1  UNL1       -0.0343
     13 C           2.0000    0.0089    0.0000 C.3     1  UNL1        0.0032
     14 C           2.0080    1.0505    0.0000 C.3     1  UNL1       -0.0143
     15 C           4.0624   -0.9485    0.0000 C.3     1  UNL1       -0.0077
     16 C           8.1513    2.5468    0.0000 C.ar    1  UNL1       -0.0378
     17 C           9.9133    2.5672    0.0000 C.3     1  UNL1        0.0032
     18 C           9.0264    3.0702    0.0000 C.3     1  UNL1       -0.0144
     19 C           4.6501    1.5573    0.0000 C.ar    1  UNL1        0.1792
     20 C           9.1492    0.0527    0.0000 C.3     1  UNL1       -0.0079
     21 C           7.3096    1.0681    0.0000 C.ar    1  UNL1       -0.0107
     22 C           6.4501    1.5365    0.0000 C.ar    1  UNL1        0.1710
     23 C           4.6501    2.5573    0.0000 C.ar    1  UNL1        0.2122
     24 C           6.4501    2.5782    0.0000 C.ar    1  UNL1        0.1711
     25 C           7.3096    3.0466    0.0000 C.ar    1  UNL1       -0.0121
     26 C           2.9180    2.5573    0.0000 C.ar    1  UNL1       -0.0125
     27 C           4.6595   -1.7499    0.0000 C.ar    1  UNL1       -0.0448
     28 C           2.9059   -1.5119    0.0000 C.3     1  UNL1       -0.0122
     29 C           3.7841    3.0573    0.0000 C.ar    1  UNL1        0.1661
     30 C           8.9002   -0.9152    0.0000 C.ar    1  UNL1       -0.0448
     31 C          10.7774    1.0442    0.0000 C.3     1  UNL1       -0.0122
     32 C           5.5087   -2.2769    0.0000 C.ar    1  UNL1       -0.0472
     33 C           8.3142   -1.7247    0.0000 C.ar    1  UNL1       -0.0472
     34 C           6.4918   -2.4564    0.0000 C.ar    1  UNL1        0.0273
     35 C           7.4724   -2.2634    0.0000 C.ar    1  UNL1        0.0275
     36 C           5.1136   -0.8701    0.0000 C.ar    1  UNL1       -0.0550
     37 C           9.4980   -1.7044    0.0000 C.ar    1  UNL1       -0.0550
     38 C           6.7459   -1.4995    0.0000 C.ar    1  UNL1        0.1247
     39 C           8.2260   -2.9054    0.0000 C.ar    1  UNL1        0.1279
     40 C           6.0966   -0.7521    0.0000 C.ar    1  UNL1       -0.0193
     41 C           9.1804   -2.6421    0.0000 C.ar    1  UNL1       -0.0191
     42 C           2.9180    4.5573    0.0000 C.3     1  UNL1        0.0790
     43 C           8.7468   -4.5573    0.0000 C.3     1  UNL1        0.0788
     44 H           4.5329    0.4465    0.0000 H       1  UNL1        0.0516
     45 H           9.7858    0.6627    0.0000 H       1  UNL1        0.0515
     46 H           1.3900    0.1197    0.0000 H       1  UNL1        0.0430
     47 H           1.7864   -0.5732    0.0000 H       1  UNL1        0.0430
     48 H           1.8035    1.6358    0.0000 H       1  UNL1        0.0326
     49 H           1.3964    0.9491    0.0000 H       1  UNL1        0.0326
     50 H           3.4478   -0.8662    0.0000 H       1  UNL1        0.0332
     51 H           4.6198   -0.6772    0.0000 H       1  UNL1        0.0332
     52 H          10.5242    2.4611    0.0000 H       1  UNL1        0.0430
     53 H          10.1224    3.1509    0.0000 H       1  UNL1        0.0430
     54 H           9.4200    3.5492    0.0000 H       1  UNL1        0.0326
     55 H           8.6218    3.5400    0.0000 H       1  UNL1        0.0326
     56 H           9.6426   -0.3227    0.0000 H       1  UNL1        0.0332
     57 H           8.5304    0.0925    0.0000 H       1  UNL1        0.0332
     58 H           7.3210    0.4482    0.0000 H       1  UNL1        0.0659
     59 H           7.3210    3.6665    0.0000 H       1  UNL1        0.0658
     60 H           2.3811    2.8673    0.0000 H       1  UNL1        0.0658
     61 H           2.2859   -1.5143    0.0000 H       1  UNL1        0.0391
     62 H           2.9083   -2.1319    0.0000 H       1  UNL1        0.0391
     63 H           3.5259   -1.5095    0.0000 H       1  UNL1        0.0391
     64 H          10.4653    0.5084    0.0000 H       1  UNL1        0.0391
     65 H          11.3131    0.7321    0.0000 H       1  UNL1        0.0391
     66 H          11.0895    1.5799    0.0000 H       1  UNL1        0.0391
     67 H           5.2856   -2.8554    0.0000 H       1  UNL1        0.0627
     68 H           8.7398   -2.1755    0.0000 H       1  UNL1        0.0627
     69 H           4.7600   -0.3608    0.0000 H       1  UNL1        0.0621
     70 H          10.1100   -1.6051    0.0000 H       1  UNL1        0.0621
     71 H           6.3196   -0.1736    0.0000 H       1  UNL1        0.0654
     72 H           9.6060   -3.0929    0.0000 H       1  UNL1        0.0654
     73 H           3.2280    5.0943    0.0000 H       1  UNL1        0.0660
     74 H           2.3811    4.8673    0.0000 H       1  UNL1        0.0660
     75 H           2.6080    4.0204    0.0000 H       1  UNL1        0.0660
     76 H           7.9008   -0.6805    0.0000 H       1  UNL1        0.2922
     77 H           8.3279   -5.0144    0.0000 H       1  UNL1        0.0660
     78 H           9.2038   -4.9762    0.0000 H       1  UNL1        0.0660
     79 H           9.1656   -4.1002    0.0000 H       1  UNL1        0.0660
@<TRIPOS>BOND
     1     1    19    1
     2     1    22    1
     3     2    23    1
     4     2    24    1
     5     3    29    1
     6     3    42    1
     7     4    39    1
     8     4    43    1
     9     5    38    1
    10     5    76    1
    11     6     8    1
    12     6    13    1
    13     6    28    1
    14     7     9    1
    15     7    17    1
    16     7    31    1
    17     8    10    1
    18     8    15    1
    19     8    44    1
    20     9    11    1
    21     9    20    1
    22     9    45    1
    23    10    12   ar
    24    10    19   ar
    25    11    16   ar
    26    11    21   ar
    27    12    14    1
    28    12    26   ar
    29    13    14    1
    30    13    46    1
    31    13    47    1
    32    14    48    1
    33    14    49    1
    34    15    27    1
    35    15    50    1
    36    15    51    1
    37    16    18    1
    38    16    25   ar
    39    17    18    1
    40    17    52    1
    41    17    53    1
    42    18    54    1
    43    18    55    1
    44    19    23   ar
    45    20    30    1
    46    20    56    1
    47    20    57    1
    48    21    22   ar
    49    21    58    1
    50    22    24   ar
    51    23    29   ar
    52    24    25   ar
    53    25    59    1
    54    26    29   ar
    55    26    60    1
    56    27    32   ar
    57    27    36   ar
    58    28    61    1
    59    28    62    1
    60    28    63    1
    61    30    33   ar
    62    30    37   ar
    63    31    64    1
    64    31    65    1
    65    31    66    1
    66    32    34   ar
    67    32    67    1
    68    33    35   ar
    69    33    68    1
    70    34    35    1
    71    34    38   ar
    72    35    39   ar
    73    36    40   ar
    74    36    69    1
    75    37    41   ar
    76    37    70    1
    77    38    40   ar
    78    39    41   ar
    79    40    71    1
    80    41    72    1
    81    42    73    1
    82    42    74    1
    83    42    75    1
    84    43    77    1
    85    43    78    1
    86    43    79    1
