@<TRIPOS>MOLECULE
IMPHY002535
 41 43 0 0 0
SMALL
GASTEIGER

@<TRIPOS>ATOM
      1 O           3.5836   -0.2583    0.0000 O.3     1  UNL1       -0.4602
      2 O           8.0321   -0.5662    0.0000 O.3     1  UNL1       -0.3911
      3 O           6.2740    2.5062    0.0000 O.3     1  UNL1       -0.3874
      4 O           2.0000   -1.0630    0.0000 O.2     1  UNL1       -0.2505
      5 C           6.2619   -0.5630    0.0000 C.3     1  UNL1        0.0039
      6 C           5.3958   -0.0630    0.0000 C.3     1  UNL1        0.0274
      7 C           4.5298   -0.5630    0.0000 C.3     1  UNL1        0.1137
      8 C           4.5298   -1.5630    0.0000 C.3     1  UNL1        0.0094
      9 C           6.2619   -1.5630    0.0000 C.3     1  UNL1       -0.0442
     10 C           5.3958   -2.0630    0.0000 C.3     1  UNL1       -0.0455
     11 C           7.1719   -0.0562    0.0000 C.3     1  UNL1        0.0639
     12 C           3.5836   -1.8678    0.0000 C.3     1  UNL1        0.0598
     13 C           5.3798    0.9785    0.0000 C.2     1  UNL1       -0.0413
     14 C           7.1799    0.9854    0.0000 C.3     1  UNL1        0.0037
     15 C           7.1279   -1.0630    0.0000 C.3     1  UNL1       -0.0565
     16 C           6.2778    1.5062    0.0000 C.3     1  UNL1        0.0788
     17 C           3.0000   -1.0630    0.0000 C.2     1  UNL1        0.3106
     18 C           3.2729   -2.8183    0.0000 C.3     1  UNL1       -0.0519
     19 C           4.5080    1.4684    0.0000 C.2     1  UNL1       -0.0966
     20 H           6.1287    0.3676    0.0000 H       1  UNL1        0.0388
     21 H           4.4399    0.2822    0.0000 H       1  UNL1        0.0743
     22 H           4.4399   -2.4083    0.0000 H       1  UNL1        0.0344
     23 H           6.4739   -2.1456    0.0000 H       1  UNL1        0.0272
     24 H           6.8725   -1.4554    0.0000 H       1  UNL1        0.0272
     25 H           4.9973   -2.5380    0.0000 H       1  UNL1        0.0269
     26 H           5.7944   -2.5380    0.0000 H       1  UNL1        0.0269
     27 H           7.7118    0.2486    0.0000 H       1  UNL1        0.0600
     28 H           2.9711   -1.9640    0.0000 H       1  UNL1        0.0415
     29 H           7.7899    0.8746    0.0000 H       1  UNL1        0.0318
     30 H           7.3935    1.5675    0.0000 H       1  UNL1        0.0318
     31 H           6.8179   -1.6000    0.0000 H       1  UNL1        0.0236
     32 H           7.6648   -1.3730    0.0000 H       1  UNL1        0.0236
     33 H           7.4379   -0.5261    0.0000 H       1  UNL1        0.0236
     34 H           6.8142    1.8173    0.0000 H       1  UNL1        0.0641
     35 H           2.6836   -2.6257    0.0000 H       1  UNL1        0.0238
     36 H           3.0803   -3.4076    0.0000 H       1  UNL1        0.0238
     37 H           3.8623   -3.0109    0.0000 H       1  UNL1        0.0238
     38 H           8.5726   -0.2624    0.0000 H       1  UNL1        0.2098
     39 H           4.5009    2.0884    0.0000 H       1  UNL1        0.0535
     40 H           3.9747    1.1522    0.0000 H       1  UNL1        0.0535
     41 H           6.8097    2.8183    0.0000 H       1  UNL1        0.2102
@<TRIPOS>BOND
     1     1     7    1
     2     1    17    1
     3    11     2    1
     4     2    38    1
     5    16     3    1
     6     3    41    1
     7     4    17    2
     8     5     6    1
     9     5     9    1
    10     5    11    1
    11     5    15    1
    12     6     7    1
    13     6    13    1
    14     6    20    1
    15     7     8    1
    16     7    21    1
    17     8    10    1
    18     8    12    1
    19     8    22    1
    20     9    10    1
    21     9    23    1
    22     9    24    1
    23    10    25    1
    24    10    26    1
    25    11    14    1
    26    11    27    1
    27    12    17    1
    28    12    18    1
    29    12    28    1
    30    13    16    1
    31    13    19    2
    32    14    16    1
    33    14    29    1
    34    14    30    1
    35    15    31    1
    36    15    32    1
    37    15    33    1
    38    16    34    1
    39    18    35    1
    40    18    36    1
    41    18    37    1
    42    19    39    1
    43    19    40    1
