@<TRIPOS>MOLECULE
IMPHY003250
 50 53 0 0 0
SMALL
GASTEIGER

@<TRIPOS>ATOM
      1 O           4.5981   -1.6796    0.0000 O.3     1  UNL1       -0.3276
      2 O           6.3301   -1.6796    0.0000 O.3     1  UNL1       -0.4606
      3 O           4.5981   -4.6796    0.0000 O.3     1  UNL1       -0.3863
      4 O           6.3301   -3.6796    0.0000 O.3     1  UNL1       -0.3829
      5 O           2.8660   -3.6796    0.0000 O.3     1  UNL1       -0.3862
      6 O           2.0000   -2.1796    0.0000 O.co2   1  UNL1       -0.5470
      7 O           2.8660   -0.6796    0.0000 O.co2   1  UNL1       -0.5470
      8 O           8.0861    1.3829    0.0000 O.2     1  UNL1       -0.4544
      9 O           4.5839    1.3996    0.0000 O.3     1  UNL1       -0.5058
     10 O           5.4938    2.8930    0.0000 O.2     1  UNL1       -0.2869
     11 O          11.5540    2.3696    0.0000 O.3     1  UNL1       -0.5033
     12 O          11.5617    4.3696    0.0000 O.3     1  UNL1       -0.5033
     13 C           4.5981   -3.6796    0.0000 C.3     1  UNL1        0.1155
     14 C           5.4641   -3.1796    0.0000 C.3     1  UNL1        0.1454
     15 C           3.7320   -3.1796    0.0000 C.3     1  UNL1        0.1151
     16 C           5.4641   -2.1796    0.0000 C.3     1  UNL1        0.2310
     17 C           3.7320   -2.1796    0.0000 C.3     1  UNL1        0.1300
     18 C           2.8660   -1.6796    0.0000 C.2     1  UNL1        0.0732
     19 C           6.3301   -0.6796    0.0000 C.ar    1  UNL1        0.1310
     20 C           7.2302   -0.1553    0.0000 C.ar    1  UNL1        0.0235
     21 C           5.4301   -0.1553    0.0000 C.ar    1  UNL1        0.0226
     22 C           7.2182    0.8863    0.0000 C.ar    1  UNL1        0.1462
     23 C           6.3541    1.3896    0.0000 C.ar    1  UNL1        0.1055
     24 C           5.4421    0.8863    0.0000 C.ar    1  UNL1        0.1347
     25 C           6.3579    2.3896    0.0000 C.ar    1  UNL1        0.1966
     26 C           8.0900    2.3829    0.0000 C.ar    1  UNL1        0.1393
     27 C           7.2259    2.8863    0.0000 C.ar    1  UNL1        0.0288
     28 C           8.9579    2.8796    0.0000 C.ar    1  UNL1        0.0211
     29 C           9.8220    2.3763    0.0000 C.ar    1  UNL1       -0.0059
     30 C           8.9618    3.8796    0.0000 C.ar    1  UNL1       -0.0474
     31 C          10.6899    2.8729    0.0000 C.ar    1  UNL1        0.1589
     32 C           9.8297    4.3762    0.0000 C.ar    1  UNL1       -0.0159
     33 C          10.6938    3.8729    0.0000 C.ar    1  UNL1        0.1583
     34 H           4.0611   -3.9896    0.0000 H       1  UNL1        0.0648
     35 H           5.4641   -3.7996    0.0000 H       1  UNL1        0.0683
     36 H           3.1951   -2.8696    0.0000 H       1  UNL1        0.0650
     37 H           6.0010   -2.4896    0.0000 H       1  UNL1        0.1084
     38 H           3.7320   -1.5596    0.0000 H       1  UNL1        0.0686
     39 H           4.0611   -4.9896    0.0000 H       1  UNL1        0.2100
     40 H           6.3301   -4.2996    0.0000 H       1  UNL1        0.2102
     41 H           2.8660   -4.2996    0.0000 H       1  UNL1        0.2100
     42 H           7.7695   -0.4611    0.0000 H       1  UNL1        0.0691
     43 H           4.8908   -0.4611    0.0000 H       1  UNL1        0.0691
     44 H           7.2282    3.5063    0.0000 H       1  UNL1        0.0693
     45 H           4.0422    1.0979    0.0000 H       1  UNL1        0.2922
     46 H           9.8196    1.7563    0.0000 H       1  UNL1        0.0662
     47 H           8.4260    4.1916    0.0000 H       1  UNL1        0.0626
     48 H           9.8321    4.9962    0.0000 H       1  UNL1        0.0655
     49 H          12.0922    2.6775    0.0000 H       1  UNL1        0.2923
     50 H          11.5641    4.9896    0.0000 H       1  UNL1        0.2923
@<TRIPOS>UNITY_ATOM_ATTR
6 1
charge -1
@<TRIPOS>BOND
     1     1    16    1
     2     1    17    1
     3    16     2    1
     4     2    19    1
     5    13     3    1
     6     3    39    1
     7    14     4    1
     8     4    40    1
     9    15     5    1
    10     5    41    1
    11     6    18   ar
    12     7    18   ar
    13     8    22   ar
    14     8    26   ar
    15     9    24    1
    16     9    45    1
    17    10    25    2
    18    11    31    1
    19    11    49    1
    20    12    33    1
    21    12    50    1
    22    13    14    1
    23    13    15    1
    24    13    34    1
    25    14    16    1
    26    14    35    1
    27    15    17    1
    28    15    36    1
    29    16    37    1
    30    17    18    1
    31    17    38    1
    32    19    20   ar
    33    19    21   ar
    34    20    22   ar
    35    20    42    1
    36    21    24   ar
    37    21    43    1
    38    22    23   ar
    39    23    24   ar
    40    23    25   ar
    41    25    27   ar
    42    26    27   ar
    43    26    28    1
    44    27    44    1
    45    28    29   ar
    46    28    30   ar
    47    29    31   ar
    48    29    46    1
    49    30    32   ar
    50    30    47    1
    51    31    33   ar
    52    32    33   ar
    53    32    48    1
