@<TRIPOS>MOLECULE
IMPHY000069
 57 60 0 0 0
SMALL
GASTEIGER

@<TRIPOS>ATOM
      1 O           7.9288   -1.4507    0.0000 O.3     1  UNL1       -0.3876
      2 O           7.0628    2.0493    0.0000 O.3     1  UNL1       -0.3911
      3 O           8.5179    2.5489    0.0000 O.2     1  UNL1       -0.2974
      4 O           2.5357   -2.5030    0.0000 O.3     1  UNL1       -0.3915
      5 C           7.9288   -0.4507    0.0000 C.3     1  UNL1        0.0778
      6 C           7.9288    0.5493    0.0000 C.3     1  UNL1        0.0323
      7 C           7.0628   -0.9507    0.0000 C.3     1  UNL1       -0.0044
      8 C           6.1968   -0.4507    0.0000 C.3     1  UNL1       -0.0239
      9 C           5.2868   -0.9575    0.0000 C.3     1  UNL1       -0.0077
     10 C           7.0628    1.0493    0.0000 C.3     1  UNL1        0.0642
     11 C           8.8750    0.8540    0.0000 C.3     1  UNL1        0.0277
     12 C           6.1968    0.5493    0.0000 C.3     1  UNL1       -0.0223
     13 C           8.8750   -0.7554    0.0000 C.3     1  UNL1       -0.0224
     14 C           9.4586    0.0493    0.0000 C.3     1  UNL1       -0.0402
     15 C           7.0789   -1.9922    0.0000 C.3     1  UNL1       -0.0287
     16 C           7.9288    1.5493    0.0000 C.3     1  UNL1       -0.0539
     17 C           5.2787   -1.9991    0.0000 C.2     1  UNL1       -0.0648
     18 C           4.3599   -0.3935    0.0000 C.3     1  UNL1       -0.0413
     19 C           6.1808   -2.5200    0.0000 C.2     1  UNL1       -0.0838
     20 C           5.2945    0.0424    0.0000 C.3     1  UNL1       -0.0556
     21 C           4.3433   -2.5489    0.0000 C.3     1  UNL1       -0.0051
     22 C           9.1857    1.8046    0.0000 C.2     1  UNL1        0.1341
     23 C           3.4120   -0.9214    0.0000 C.3     1  UNL1       -0.0258
     24 C           3.4037   -2.0064    0.0000 C.3     1  UNL1        0.0590
     25 C          10.1642    2.0108    0.0000 C.3     1  UNL1       -0.0058
     26 H           7.8022   -1.3700    0.0000 H       1  UNL1        0.0335
     27 H           6.9329   -0.0257    0.0000 H       1  UNL1        0.0314
     28 H           6.5259    1.3593    0.0000 H       1  UNL1        0.0600
     29 H           9.4875    0.9502    0.0000 H       1  UNL1        0.0384
     30 H           5.9847    1.1319    0.0000 H       1  UNL1        0.0293
     31 H           5.5862    0.4416    0.0000 H       1  UNL1        0.0293
     32 H           8.6240   -1.3223    0.0000 H       1  UNL1        0.0293
     33 H           9.4124   -1.0647    0.0000 H       1  UNL1        0.0293
     34 H           9.9195   -0.3654    0.0000 H       1  UNL1        0.0273
     35 H           9.9195    0.4640    0.0000 H       1  UNL1        0.0273
     36 H           7.2969   -2.5726    0.0000 H       1  UNL1        0.0311
     37 H           7.6880   -1.8767    0.0000 H       1  UNL1        0.0311
     38 H           8.5488    1.5493    0.0000 H       1  UNL1        0.0237
     39 H           7.9288    2.1693    0.0000 H       1  UNL1        0.0237
     40 H           7.3088    1.5493    0.0000 H       1  UNL1        0.0237
     41 H           4.7681    0.0732    0.0000 H       1  UNL1        0.0274
     42 H           3.9700    0.0886    0.0000 H       1  UNL1        0.0274
     43 H           6.1832   -3.1399    0.0000 H       1  UNL1        0.0572
     44 H           8.4658   -1.7607    0.0000 H       1  UNL1        0.2102
     45 H           5.9145    0.0377    0.0000 H       1  UNL1        0.0238
     46 H           5.2993    0.6624    0.0000 H       1  UNL1        0.0238
     47 H           4.6745    0.0472    0.0000 H       1  UNL1        0.0238
     48 H           3.9460   -3.0248    0.0000 H       1  UNL1        0.0335
     49 H           4.7443   -3.0218    0.0000 H       1  UNL1        0.0335
     50 H           3.2075   -0.3361    0.0000 H       1  UNL1        0.0290
     51 H           2.8004   -1.0228    0.0000 H       1  UNL1        0.0290
     52 H           3.4025   -2.6264    0.0000 H       1  UNL1        0.0596
     53 H           6.5259    2.3593    0.0000 H       1  UNL1        0.2098
     54 H          10.2921    1.4041    0.0000 H       1  UNL1        0.0306
     55 H          10.7709    2.1386    0.0000 H       1  UNL1        0.0306
     56 H          10.0364    2.6174    0.0000 H       1  UNL1        0.0306
     57 H           2.0000   -2.1910    0.0000 H       1  UNL1        0.2098
@<TRIPOS>BOND
     1     5     1    1
     2     1    44    1
     3    10     2    1
     4     2    53    1
     5     3    22    2
     6    24     4    1
     7     4    57    1
     8     5     6    1
     9     5     7    1
    10     5    13    1
    11     6    10    1
    12     6    11    1
    13     6    16    1
    14     7     8    1
    15     7    15    1
    16     7    26    1
    17     8     9    1
    18     8    12    1
    19     8    27    1
    20     9    17    1
    21     9    18    1
    22     9    20    1
    23    10    12    1
    24    10    28    1
    25    11    14    1
    26    11    22    1
    27    11    29    1
    28    12    30    1
    29    12    31    1
    30    13    14    1
    31    13    32    1
    32    13    33    1
    33    14    34    1
    34    14    35    1
    35    15    19    1
    36    15    36    1
    37    15    37    1
    38    16    38    1
    39    16    39    1
    40    16    40    1
    41    17    19    2
    42    17    21    1
    43    18    23    1
    44    18    41    1
    45    18    42    1
    46    19    43    1
    47    20    45    1
    48    20    46    1
    49    20    47    1
    50    21    24    1
    51    21    48    1
    52    21    49    1
    53    22    25    1
    54    23    24    1
    55    23    50    1
    56    23    51    1
    57    24    52    1
    58    25    54    1
    59    25    55    1
    60    25    56    1
