@<TRIPOS>MOLECULE
IMPHY004778
 56 60 0 0 0
SMALL
GASTEIGER

@<TRIPOS>ATOM
      1 O           7.3920   -2.0168    0.0000 O.3     1  UNL1       -0.4817
      2 O           4.6119    1.1387    0.0000 O.2     1  UNL1       -0.4539
      3 O           5.5098   -3.4374    0.0000 O.3     1  UNL1       -0.5030
      4 O           3.7517   -0.3650    0.0000 O.3     1  UNL1       -0.5056
      5 O           7.2757    2.6633    0.0000 O.2     1  UNL1       -0.2866
      6 O           6.3944    4.2760    0.0000 O.3     1  UNL1       -0.5058
      7 O           2.7796    4.2899    0.0000 O.3     1  UNL1       -0.5065
      8 C           7.2539   -0.3681    0.0000 C.3     1  UNL1        0.0320
      9 C           7.8718   -1.1465    0.0000 C.3     1  UNL1        0.1124
     10 C           6.3879   -0.8681    0.0000 C.ar    1  UNL1        0.0193
     11 C           7.2539    0.6319    0.0000 C.3     1  UNL1       -0.0099
     12 C           6.4040   -1.9096    0.0000 C.ar    1  UNL1        0.1672
     13 C           5.5219   -0.3681    0.0000 C.ar    1  UNL1        0.0666
     14 C           6.3879    1.1319    0.0000 C.ar    1  UNL1        0.0437
     15 C           8.7271   -1.6647    0.0000 C.3     1  UNL1       -0.0246
     16 C           8.6290   -0.4932    0.0000 C.3     1  UNL1       -0.0246
     17 C           5.5219    0.6319    0.0000 C.ar    1  UNL1        0.1463
     18 C           5.5059   -2.4374    0.0000 C.ar    1  UNL1        0.1659
     19 C           4.6119   -0.8750    0.0000 C.ar    1  UNL1        0.1349
     20 C           4.6038   -1.9166    0.0000 C.ar    1  UNL1        0.0435
     21 C           6.4040    2.1734    0.0000 C.ar    1  UNL1        0.1998
     22 C           5.5059    2.7011    0.0000 C.ar    1  UNL1        0.1057
     23 C           3.7359   -2.4132    0.0000 C.3     1  UNL1       -0.0022
     24 C           4.6038    2.1803    0.0000 C.ar    1  UNL1        0.1463
     25 C           5.5226    3.7860    0.0000 C.ar    1  UNL1        0.1347
     26 C           3.6560    2.7083    0.0000 C.ar    1  UNL1        0.0231
     27 C           3.7320   -3.4132    0.0000 C.2     1  UNL1       -0.0807
     28 C           4.5872    4.3357    0.0000 C.ar    1  UNL1        0.0223
     29 C           3.6476    3.7932    0.0000 C.ar    1  UNL1        0.1239
     30 C           2.8641   -3.9099    0.0000 C.2     1  UNL1       -0.0793
     31 C           2.8602   -4.9099    0.0000 C.3     1  UNL1       -0.0440
     32 C           2.0000   -3.4066    0.0000 C.3     1  UNL1       -0.0440
     33 H           7.8394   -0.1640    0.0000 H       1  UNL1        0.0392
     34 H           7.8645    0.5242    0.0000 H       1  UNL1        0.0323
     35 H           7.4660    1.2145    0.0000 H       1  UNL1        0.0323
     36 H           8.4058   -2.1950    0.0000 H       1  UNL1        0.0268
     37 H           9.2573   -1.9860    0.0000 H       1  UNL1        0.0268
     38 H           9.0484   -1.1345    0.0000 H       1  UNL1        0.0268
     39 H           9.0340   -0.9627    0.0000 H       1  UNL1        0.0268
     40 H           9.0984   -0.0882    0.0000 H       1  UNL1        0.0268
     41 H           8.2240   -0.0238    0.0000 H       1  UNL1        0.0268
     42 H           3.5261   -1.8298    0.0000 H       1  UNL1        0.0358
     43 H           3.1249   -2.5185    0.0000 H       1  UNL1        0.0358
     44 H           6.0479   -3.7453    0.0000 H       1  UNL1        0.2923
     45 H           3.2112   -0.6688    0.0000 H       1  UNL1        0.2922
     46 H           3.1226    2.3921    0.0000 H       1  UNL1        0.0691
     47 H           4.2678   -3.7253    0.0000 H       1  UNL1        0.0575
     48 H           4.5896    4.9557    0.0000 H       1  UNL1        0.0691
     49 H           6.4016    4.8959    0.0000 H       1  UNL1        0.2922
     50 H           2.2402   -4.9075    0.0000 H       1  UNL1        0.0274
     51 H           2.3121   -2.8708    0.0000 H       1  UNL1        0.0274
     52 H           1.4643   -3.0945    0.0000 H       1  UNL1        0.0274
     53 H           1.6879   -3.9423    0.0000 H       1  UNL1        0.0274
     54 H           2.8578   -5.5299    0.0000 H       1  UNL1        0.0274
     55 H           3.4802   -4.9123    0.0000 H       1  UNL1        0.0274
     56 H           2.7772    4.9099    0.0000 H       1  UNL1        0.2921
@<TRIPOS>BOND
     1     1     9    1
     2     1    12    1
     3     2    17   ar
     4     2    24   ar
     5     3    18    1
     6     3    44    1
     7     4    19    1
     8     4    45    1
     9     5    21    2
    10     6    25    1
    11     6    49    1
    12     7    29    1
    13     7    56    1
    14     8     9    1
    15     8    10    1
    16     8    11    1
    17     8    33    1
    18     9    15    1
    19     9    16    1
    20    10    12   ar
    21    10    13   ar
    22    11    14    1
    23    11    34    1
    24    11    35    1
    25    12    18   ar
    26    13    17    1
    27    13    19   ar
    28    14    17   ar
    29    14    21   ar
    30    15    36    1
    31    15    37    1
    32    15    38    1
    33    16    39    1
    34    16    40    1
    35    16    41    1
    36    18    20   ar
    37    19    20   ar
    38    20    23    1
    39    21    22   ar
    40    22    24   ar
    41    22    25   ar
    42    23    27    1
    43    23    42    1
    44    23    43    1
    45    24    26   ar
    46    25    28   ar
    47    26    29   ar
    48    26    46    1
    49    27    30    2
    50    27    47    1
    51    28    29   ar
    52    28    48    1
    53    30    31    1
    54    30    32    1
    55    31    50    1
    56    31    54    1
    57    31    55    1
    58    32    51    1
    59    32    52    1
    60    32    53    1
