@<TRIPOS>MOLECULE
IMPHY015409
 42 43 0 0 0
SMALL
GASTEIGER

@<TRIPOS>ATOM
      1 O           2.6126    2.2754    0.0000 O.3     1  UNL1       -0.3885
      2 C           5.6311   -0.6742    0.0000 C.3     1  UNL1       -0.0170
      3 C           4.8524   -1.3016    0.0000 C.3     1  UNL1       -0.0373
      4 C           5.6261    0.3258    0.0000 C.2     1  UNL1       -0.0669
      5 C           6.5708    0.6352    0.0000 C.3     1  UNL1       -0.0224
      6 C           6.5788   -0.9742    0.0000 C.3     1  UNL1       -0.0457
      7 C           7.1584   -0.1666    0.0000 C.3     1  UNL1       -0.0462
      8 C           3.8674    0.7180    0.0000 C.3     1  UNL1        0.0057
      9 C           3.8764   -1.0839    0.0000 C.3     1  UNL1       -0.0493
     10 C           3.4380   -0.1851    0.0000 C.3     1  UNL1       -0.0439
     11 C           4.8412    0.9454    0.0000 C.2     1  UNL1       -0.0784
     12 C           3.2400    1.4967    0.0000 C.3     1  UNL1        0.0667
     13 C           5.0798   -2.2754    0.0000 C.3     1  UNL1       -0.0619
     14 C           6.8767    1.5873    0.0000 C.3     1  UNL1       -0.0587
     15 C           2.4613    0.8693    0.0000 C.3     1  UNL1       -0.0358
     16 C           4.0187    2.1241    0.0000 C.3     1  UNL1       -0.0358
     17 H           5.7881   -1.5096    0.0000 H       1  UNL1        0.0348
     18 H           4.4162   -1.7422    0.0000 H       1  UNL1        0.0304
     19 H           6.1312    1.0724    0.0000 H       1  UNL1        0.0343
     20 H           6.3306   -1.5424    0.0000 H       1  UNL1        0.0271
     21 H           7.1177   -1.2808    0.0000 H       1  UNL1        0.0271
     22 H           7.6213   -0.5790    0.0000 H       1  UNL1        0.0271
     23 H           7.6172    0.2504    0.0000 H       1  UNL1        0.0271
     24 H           3.0232    0.6186    0.0000 H       1  UNL1        0.0371
     25 H           3.2726   -1.2249    0.0000 H       1  UNL1        0.0268
     26 H           3.8794   -1.7039    0.0000 H       1  UNL1        0.0268
     27 H           2.9513    0.1990    0.0000 H       1  UNL1        0.0272
     28 H           2.9552   -0.5741    0.0000 H       1  UNL1        0.0272
     29 H           4.9761    1.5505    0.0000 H       1  UNL1        0.0575
     30 H           4.4760   -2.4164    0.0000 H       1  UNL1        0.0233
     31 H           5.2207   -2.8792    0.0000 H       1  UNL1        0.0233
     32 H           5.6835   -2.1344    0.0000 H       1  UNL1        0.0233
     33 H           7.4670    1.3976    0.0000 H       1  UNL1        0.0235
     34 H           7.0664    2.1776    0.0000 H       1  UNL1        0.0235
     35 H           6.2864    1.7770    0.0000 H       1  UNL1        0.0235
     36 H           2.0723    1.3521    0.0000 H       1  UNL1        0.0257
     37 H           1.9785    0.4803    0.0000 H       1  UNL1        0.0257
     38 H           2.8502    0.3865    0.0000 H       1  UNL1        0.0257
     39 H           4.4077    1.6413    0.0000 H       1  UNL1        0.0257
     40 H           4.5015    2.5130    0.0000 H       1  UNL1        0.0257
     41 H           3.6297    2.6069    0.0000 H       1  UNL1        0.0257
     42 H           2.0000    2.1799    0.0000 H       1  UNL1        0.2102
@<TRIPOS>BOND
     1     1    12    1
     2     1    42    1
     3     2     3    1
     4     2     4    1
     5     2     6    1
     6     2    17    1
     7     3     9    1
     8     3    13    1
     9     3    18    1
    10     4     5    1
    11     4    11    2
    12     5     7    1
    13     5    14    1
    14     5    19    1
    15     6     7    1
    16     6    20    1
    17     6    21    1
    18     7    22    1
    19     7    23    1
    20     8    10    1
    21     8    11    1
    22     8    12    1
    23     8    24    1
    24     9    10    1
    25     9    25    1
    26     9    26    1
    27    10    27    1
    28    10    28    1
    29    11    29    1
    30    12    15    1
    31    12    16    1
    32    13    30    1
    33    13    31    1
    34    13    32    1
    35    14    33    1
    36    14    34    1
    37    14    35    1
    38    15    36    1
    39    15    37    1
    40    15    38    1
    41    16    39    1
    42    16    40    1
    43    16    41    1
