@<TRIPOS>MOLECULE
IMPHY007610
 82 86 0 0 0
SMALL
GASTEIGER

@<TRIPOS>ATOM
      1 C           5.6591   -1.1050    0.0000 C.3     1  UNL1       -0.0231
      2 C           6.5251   -0.6051    0.0000 C.3     1  UNL1       -0.0233
      3 C           4.7931   -0.6051    0.0000 C.3     1  UNL1       -0.0294
      4 C           6.5251    0.3949    0.0000 C.3     1  UNL1       -0.0315
      5 C           3.8831   -1.1119    0.0000 C.3     1  UNL1       -0.0254
      6 C           7.4191    0.9296    0.0000 C.3     1  UNL1       -0.0295
      7 C           3.8751   -2.1535    0.0000 C.3     1  UNL1       -0.0302
      8 C           8.3252    0.4158    0.0000 C.3     1  UNL1       -0.0287
      9 C           5.6752   -2.1466    0.0000 C.3     1  UNL1       -0.0466
     10 C           4.7931    0.3949    0.0000 C.3     1  UNL1       -0.0489
     11 C           7.4191   -1.1397    0.0000 C.3     1  UNL1       -0.0464
     12 C           5.6591    0.8949    0.0000 C.3     1  UNL1       -0.0491
     13 C           4.7771   -2.6743    0.0000 C.3     1  UNL1       -0.0487
     14 C           8.3252   -0.6259    0.0000 C.3     1  UNL1       -0.0468
     15 C           7.3940    2.0143    0.0000 C.3     1  UNL1       -0.0377
     16 C           2.9396   -2.7032    0.0000 C.3     1  UNL1       -0.0315
     17 C           2.9562   -0.5478    0.0000 C.3     1  UNL1       -0.0471
     18 C           6.3019   -1.8711    0.0000 C.3     1  UNL1       -0.0588
     19 C           6.8672   -1.5447    0.0000 C.3     1  UNL1       -0.0588
     20 C           9.2689    0.9510    0.0000 C.3     1  UNL1       -0.0471
     21 C           3.8908   -0.1119    0.0000 C.3     1  UNL1       -0.0590
     22 C           8.3252    2.5712    0.0000 C.3     1  UNL1       -0.0410
     23 C           2.0000   -2.1607    0.0000 C.3     1  UNL1       -0.0476
     24 C           2.0084   -1.0758    0.0000 C.3     1  UNL1       -0.0521
     25 C           9.2689    2.0360    0.0000 C.3     1  UNL1       -0.0497
     26 C           9.1950   -0.0775    0.0000 C.3     1  UNL1       -0.0593
     27 C           6.5185    2.4975    0.0000 C.3     1  UNL1       -0.0619
     28 C           2.4430   -3.5712    0.0000 C.3     1  UNL1       -0.0595
     29 C           3.4430   -3.5673    0.0000 C.3     1  UNL1       -0.0595
     30 C           8.3136    3.5712    0.0000 C.3     1  UNL1       -0.0622
     31 H           5.5292   -0.1801    0.0000 H       1  UNL1        0.0312
     32 H           6.5186    1.2449    0.0000 H       1  UNL1        0.0309
     33 H           8.1486    1.3659    0.0000 H       1  UNL1        0.0312
     34 H           3.8783   -3.0035    0.0000 H       1  UNL1        0.0311
     35 H           5.8932   -2.7270    0.0000 H       1  UNL1        0.0271
     36 H           6.2843   -2.0311    0.0000 H       1  UNL1        0.0271
     37 H           4.5810    0.9776    0.0000 H       1  UNL1        0.0268
     38 H           4.1825    0.2873    0.0000 H       1  UNL1        0.0268
     39 H           7.0145   -1.6095    0.0000 H       1  UNL1        0.0271
     40 H           7.8127   -1.6187    0.0000 H       1  UNL1        0.0271
     41 H           6.0576    1.3699    0.0000 H       1  UNL1        0.0268
     42 H           5.2606    1.3699    0.0000 H       1  UNL1        0.0268
     43 H           4.3798   -3.1503    0.0000 H       1  UNL1        0.0268
     44 H           5.1781   -3.1472    0.0000 H       1  UNL1        0.0268
     45 H           8.5342   -1.2096    0.0000 H       1  UNL1        0.0271
     46 H           8.9360   -0.5198    0.0000 H       1  UNL1        0.0271
     47 H           7.3832    2.6342    0.0000 H       1  UNL1        0.0304
     48 H           3.3645   -0.0812    0.0000 H       1  UNL1        0.0271
     49 H           2.5663   -0.0658    0.0000 H       1  UNL1        0.0271
     50 H           5.8270   -2.2696    0.0000 H       1  UNL1        0.0235
     51 H           6.7004   -2.3460    0.0000 H       1  UNL1        0.0235
     52 H           6.7768   -1.4726    0.0000 H       1  UNL1        0.0235
     53 H           6.2847   -1.7568    0.0000 H       1  UNL1        0.0235
     54 H           7.0794   -2.1273    0.0000 H       1  UNL1        0.0235
     55 H           7.4498   -1.3326    0.0000 H       1  UNL1        0.0235
     56 H           9.4780    0.3673    0.0000 H       1  UNL1        0.0271
     57 H           9.8798    1.0571    0.0000 H       1  UNL1        0.0271
     58 H           4.5108   -0.1167    0.0000 H       1  UNL1        0.0235
     59 H           3.8956    0.5081    0.0000 H       1  UNL1        0.0235
     60 H           3.2708   -0.1071    0.0000 H       1  UNL1        0.0235
     61 H           7.7841    2.8740    0.0000 H       1  UNL1        0.0301
     62 H           1.3900   -2.0499    0.0000 H       1  UNL1        0.0271
     63 H           1.7864   -2.7428    0.0000 H       1  UNL1        0.0271
     64 H           1.8038   -0.4905    0.0000 H       1  UNL1        0.0266
     65 H           1.3967   -1.1771    0.0000 H       1  UNL1        0.0266
     66 H           9.8798    1.9299    0.0000 H       1  UNL1        0.0268
     67 H           9.4780    2.6197    0.0000 H       1  UNL1        0.0268
     68 H           8.8892   -0.6169    0.0000 H       1  UNL1        0.0235
     69 H           9.7343   -0.3834    0.0000 H       1  UNL1        0.0235
     70 H           9.5008    0.4618    0.0000 H       1  UNL1        0.0235
     71 H           6.8181    3.0403    0.0000 H       1  UNL1        0.0233
     72 H           5.9757    2.7971    0.0000 H       1  UNL1        0.0233
     73 H           6.2189    1.9547    0.0000 H       1  UNL1        0.0233
     74 H           1.9048   -3.2632    0.0000 H       1  UNL1        0.0235
     75 H           2.1350   -4.1093    0.0000 H       1  UNL1        0.0235
     76 H           2.9811   -3.8791    0.0000 H       1  UNL1        0.0235
     77 H           2.9072   -3.8794    0.0000 H       1  UNL1        0.0235
     78 H           3.7550   -4.1030    0.0000 H       1  UNL1        0.0235
     79 H           3.9787   -3.2553    0.0000 H       1  UNL1        0.0235
     80 H           8.9335    3.5783    0.0000 H       1  UNL1        0.0233
     81 H           8.3064    4.1911    0.0000 H       1  UNL1        0.0233
     82 H           7.6936    3.5640    0.0000 H       1  UNL1        0.0233
@<TRIPOS>BOND
     1     1     2    1
     2     1     3    1
     3     1     9    1
     4     1    18    1
     5     2     4    1
     6     2    11    1
     7     2    19    1
     8     3     5    1
     9     3    10    1
    10     3    31    1
    11     4     6    1
    12     4    12    1
    13     4    32    1
    14     5     7    1
    15     5    17    1
    16     5    21    1
    17     6     8    1
    18     6    15    1
    19     6    33    1
    20     7    13    1
    21     7    16    1
    22     7    34    1
    23     8    14    1
    24     8    20    1
    25     8    26    1
    26     9    13    1
    27     9    35    1
    28     9    36    1
    29    10    12    1
    30    10    37    1
    31    10    38    1
    32    11    14    1
    33    11    39    1
    34    11    40    1
    35    12    41    1
    36    12    42    1
    37    13    43    1
    38    13    44    1
    39    14    45    1
    40    14    46    1
    41    15    22    1
    42    15    27    1
    43    15    47    1
    44    16    23    1
    45    16    28    1
    46    16    29    1
    47    17    24    1
    48    17    48    1
    49    17    49    1
    50    18    50    1
    51    18    51    1
    52    18    52    1
    53    19    53    1
    54    19    54    1
    55    19    55    1
    56    20    25    1
    57    20    56    1
    58    20    57    1
    59    21    58    1
    60    21    59    1
    61    21    60    1
    62    22    25    1
    63    22    30    1
    64    22    61    1
    65    23    24    1
    66    23    62    1
    67    23    63    1
    68    24    64    1
    69    24    65    1
    70    25    66    1
    71    25    67    1
    72    26    68    1
    73    26    69    1
    74    26    70    1
    75    27    71    1
    76    27    72    1
    77    27    73    1
    78    28    74    1
    79    28    75    1
    80    28    76    1
    81    29    77    1
    82    29    78    1
    83    29    79    1
    84    30    80    1
    85    30    81    1
    86    30    82    1
