@<TRIPOS>MOLECULE
IMPHY015869
 14 13 0 0 0
SMALL
GASTEIGER

@<TRIPOS>ATOM
      1 O           3.7320   -0.5600    0.0000 O.3     1  UNL1       -0.4668
      2 O           2.0000   -0.5600    0.0000 O.2     1  UNL1       -0.2546
      3 C           5.4641   -0.5600    0.0000 C.3     1  UNL1       -0.0214
      4 C           4.5981   -0.0600    0.0000 C.3     1  UNL1        0.0919
      5 C           6.3301   -0.0600    0.0000 C.3     1  UNL1       -0.0622
      6 C           2.8660   -0.0600    0.0000 C.2     1  UNL1        0.2943
      7 H           5.0656   -1.0350    0.0000 H       1  UNL1        0.0295
      8 H           5.8626   -1.0350    0.0000 H       1  UNL1        0.0295
      9 H           4.9966    0.4149    0.0000 H       1  UNL1        0.0697
     10 H           4.1996    0.4149    0.0000 H       1  UNL1        0.0697
     11 H           6.6401   -0.5969    0.0000 H       1  UNL1        0.0231
     12 H           6.8671    0.2500    0.0000 H       1  UNL1        0.0231
     13 H           6.0201    0.4769    0.0000 H       1  UNL1        0.0231
     14 H           2.8660    0.5600    0.0000 H       1  UNL1        0.1512
@<TRIPOS>BOND
     1     1     4    1
     2     1     6    1
     3     2     6    2
     4     3     4    1
     5     3     5    1
     6     3     7    1
     7     3     8    1
     8     4     9    1
     9     4    10    1
    10     5    11    1
    11     5    12    1
    12     5    13    1
    13     6    14    1
