@<TRIPOS>MOLECULE
IMPHY014981
 41 46 0 0 0
SMALL
GASTEIGER

@<TRIPOS>ATOM
      1 O           2.9950    3.5673    0.0000 O.3     1  UNL1       -0.4523
      2 O           5.5740   -3.5278    0.0000 O.3     1  UNL1       -0.4526
      3 O           4.4403    4.4167    0.0000 O.3     1  UNL1       -0.4526
      4 O           4.0684   -4.4125    0.0000 O.3     1  UNL1       -0.4526
      5 N           2.9180    0.3368    0.0000 N.3     1  UNL1       -0.2905
      6 C           3.7841   -0.1632    0.0000 C.3     1  UNL1        0.0403
      7 C           4.6501    0.3368    0.0000 C.3     1  UNL1       -0.0074
      8 C           3.8001   -1.2047    0.0000 C.ar    1  UNL1       -0.0230
      9 C           2.0080   -0.1700    0.0000 C.3     1  UNL1        0.0038
     10 C           2.9180    1.3368    0.0000 C.3     1  UNL1        0.0285
     11 C           2.0000   -1.2116    0.0000 C.3     1  UNL1       -0.0144
     12 C           4.6501    1.3368    0.0000 C.ar    1  UNL1       -0.0375
     13 C           3.7841    1.8368    0.0000 C.ar    1  UNL1        0.0153
     14 C           2.9021   -1.7324    0.0000 C.ar    1  UNL1       -0.0378
     15 C           4.7520   -1.7253    0.0000 C.ar    1  UNL1       -0.0112
     16 C           3.7680    2.8783    0.0000 C.ar    1  UNL1        0.1709
     17 C           2.8937   -2.8174    0.0000 C.ar    1  UNL1       -0.0126
     18 C           5.5601    1.8437    0.0000 C.ar    1  UNL1       -0.0545
     19 C           4.7688   -2.8102    0.0000 C.ar    1  UNL1        0.1666
     20 C           3.8334   -3.3599    0.0000 C.ar    1  UNL1        0.1665
     21 C           4.6660    3.4061    0.0000 C.ar    1  UNL1        0.1666
     22 C           5.5681    2.8853    0.0000 C.ar    1  UNL1       -0.0159
     23 C           3.4096    4.5161    0.0000 C.3     1  UNL1        0.2332
     24 C           5.1420   -4.5161    0.0000 C.3     1  UNL1        0.2332
     25 H           4.5234   -0.5825    0.0000 H       1  UNL1        0.0516
     26 H           4.8621   -0.2458    0.0000 H       1  UNL1        0.0332
     27 H           5.2607    0.4445    0.0000 H       1  UNL1        0.0332
     28 H           1.8035    0.4153    0.0000 H       1  UNL1        0.0430
     29 H           1.3964   -0.2714    0.0000 H       1  UNL1        0.0430
     30 H           2.7060    1.9194    0.0000 H       1  UNL1        0.0477
     31 H           2.3074    1.2292    0.0000 H       1  UNL1        0.0477
     32 H           1.3900   -1.1008    0.0000 H       1  UNL1        0.0326
     33 H           1.7864   -1.7937    0.0000 H       1  UNL1        0.0326
     34 H           5.2829   -1.4050    0.0000 H       1  UNL1        0.0659
     35 H           2.3556   -3.1253    0.0000 H       1  UNL1        0.0658
     36 H           6.0934    1.5275    0.0000 H       1  UNL1        0.0622
     37 H           6.1062    3.1932    0.0000 H       1  UNL1        0.0655
     38 H           3.5337    5.1235    0.0000 H       1  UNL1        0.1166
     39 H           2.8186    4.7033    0.0000 H       1  UNL1        0.1166
     40 H           5.0180   -5.1235    0.0000 H       1  UNL1        0.1166
     41 H           5.7331   -4.7033    0.0000 H       1  UNL1        0.1166
@<TRIPOS>BOND
     1     1    16    1
     2     1    23    1
     3     2    19    1
     4     2    24    1
     5     3    21    1
     6     3    23    1
     7     4    20    1
     8     4    24    1
     9     5     6    1
    10     5     9    1
    11     5    10    1
    12     6     7    1
    13     6     8    1
    14     6    25    1
    15     7    12    1
    16     7    26    1
    17     7    27    1
    18     8    14   ar
    19     8    15   ar
    20     9    11    1
    21     9    28    1
    22     9    29    1
    23    10    13    1
    24    10    30    1
    25    10    31    1
    26    11    14    1
    27    11    32    1
    28    11    33    1
    29    12    13   ar
    30    12    18   ar
    31    13    16   ar
    32    14    17   ar
    33    15    19   ar
    34    15    34    1
    35    16    21   ar
    36    17    20   ar
    37    17    35    1
    38    18    22   ar
    39    18    36    1
    40    19    20   ar
    41    21    22   ar
    42    22    37    1
    43    23    38    1
    44    23    39    1
    45    24    40    1
    46    24    41    1
