@<TRIPOS>MOLECULE
IMPHY004631
 56 55 0 0 0
SMALL
GASTEIGER

@<TRIPOS>ATOM
      1 O           2.5369    0.7500    0.0000 O.3     1  UNL1       -0.4806
      2 O           3.4030   -0.7500    0.0000 O.2     1  UNL1       -0.2510
      3 C          11.1972    0.7500    0.0000 C.3     1  UNL1       -0.0531
      4 C          10.3312    0.2500    0.0000 C.3     1  UNL1       -0.0531
      5 C          12.0632    0.2500    0.0000 C.3     1  UNL1       -0.0531
      6 C           9.4651    0.7500    0.0000 C.3     1  UNL1       -0.0531
      7 C          12.9292    0.7500    0.0000 C.3     1  UNL1       -0.0531
      8 C           8.5991    0.2500    0.0000 C.3     1  UNL1       -0.0531
      9 C          13.7953    0.2500    0.0000 C.3     1  UNL1       -0.0531
     10 C           7.7331    0.7500    0.0000 C.3     1  UNL1       -0.0531
     11 C          14.6613    0.7500    0.0000 C.3     1  UNL1       -0.0531
     12 C           6.8671    0.2500    0.0000 C.3     1  UNL1       -0.0530
     13 C          15.5273    0.2500    0.0000 C.3     1  UNL1       -0.0531
     14 C           6.0010    0.7500    0.0000 C.3     1  UNL1       -0.0526
     15 C          16.3933    0.7500    0.0000 C.3     1  UNL1       -0.0533
     16 C           5.1350    0.2500    0.0000 C.3     1  UNL1       -0.0430
     17 C          17.2594    0.2500    0.0000 C.3     1  UNL1       -0.0559
     18 C           4.2690    0.7500    0.0000 C.3     1  UNL1        0.0448
     19 C          18.1254    0.7500    0.0000 C.3     1  UNL1       -0.0653
     20 C           3.4030    0.2500    0.0000 C.2     1  UNL1        0.3047
     21 H          11.5957    1.2250    0.0000 H       1  UNL1        0.0265
     22 H          10.7987    1.2250    0.0000 H       1  UNL1        0.0265
     23 H           9.9326   -0.2249    0.0000 H       1  UNL1        0.0265
     24 H          10.7297   -0.2249    0.0000 H       1  UNL1        0.0265
     25 H          11.6647   -0.2249    0.0000 H       1  UNL1        0.0265
     26 H          12.4617   -0.2249    0.0000 H       1  UNL1        0.0265
     27 H           9.8637    1.2250    0.0000 H       1  UNL1        0.0265
     28 H           9.0666    1.2250    0.0000 H       1  UNL1        0.0265
     29 H          13.3278    1.2250    0.0000 H       1  UNL1        0.0265
     30 H          12.5307    1.2250    0.0000 H       1  UNL1        0.0265
     31 H           8.2006   -0.2249    0.0000 H       1  UNL1        0.0265
     32 H           8.9976   -0.2249    0.0000 H       1  UNL1        0.0265
     33 H          13.3967   -0.2249    0.0000 H       1  UNL1        0.0265
     34 H          14.1938   -0.2249    0.0000 H       1  UNL1        0.0265
     35 H           8.1316    1.2250    0.0000 H       1  UNL1        0.0265
     36 H           7.3346    1.2250    0.0000 H       1  UNL1        0.0265
     37 H          15.0598    1.2250    0.0000 H       1  UNL1        0.0265
     38 H          14.2628    1.2250    0.0000 H       1  UNL1        0.0265
     39 H           6.4685   -0.2249    0.0000 H       1  UNL1        0.0265
     40 H           7.2656   -0.2249    0.0000 H       1  UNL1        0.0265
     41 H          15.1288   -0.2249    0.0000 H       1  UNL1        0.0265
     42 H          15.9258   -0.2249    0.0000 H       1  UNL1        0.0265
     43 H           6.3996    1.2250    0.0000 H       1  UNL1        0.0265
     44 H           5.6025    1.2250    0.0000 H       1  UNL1        0.0265
     45 H          16.7919    1.2250    0.0000 H       1  UNL1        0.0265
     46 H          15.9948    1.2250    0.0000 H       1  UNL1        0.0265
     47 H           4.7365   -0.2249    0.0000 H       1  UNL1        0.0270
     48 H           5.5335   -0.2249    0.0000 H       1  UNL1        0.0270
     49 H          16.8608   -0.2249    0.0000 H       1  UNL1        0.0263
     50 H          17.6579   -0.2249    0.0000 H       1  UNL1        0.0263
     51 H           4.6675    1.2250    0.0000 H       1  UNL1        0.0377
     52 H           3.8705    1.2250    0.0000 H       1  UNL1        0.0377
     53 H          18.4354    0.2131    0.0000 H       1  UNL1        0.0230
     54 H          18.6623    1.0600    0.0000 H       1  UNL1        0.0230
     55 H          17.8154    1.2869    0.0000 H       1  UNL1        0.0230
     56 H           2.0000    0.4400    0.0000 H       1  UNL1        0.2951
@<TRIPOS>BOND
     1     1    20    1
     2     1    56    1
     3     2    20    2
     4     3     4    1
     5     3     5    1
     6     3    21    1
     7     3    22    1
     8     4     6    1
     9     4    23    1
    10     4    24    1
    11     5     7    1
    12     5    25    1
    13     5    26    1
    14     6     8    1
    15     6    27    1
    16     6    28    1
    17     7     9    1
    18     7    29    1
    19     7    30    1
    20     8    10    1
    21     8    31    1
    22     8    32    1
    23     9    11    1
    24     9    33    1
    25     9    34    1
    26    10    12    1
    27    10    35    1
    28    10    36    1
    29    11    13    1
    30    11    37    1
    31    11    38    1
    32    12    14    1
    33    12    39    1
    34    12    40    1
    35    13    15    1
    36    13    41    1
    37    13    42    1
    38    14    16    1
    39    14    43    1
    40    14    44    1
    41    15    17    1
    42    15    45    1
    43    15    46    1
    44    16    18    1
    45    16    47    1
    46    16    48    1
    47    17    19    1
    48    17    49    1
    49    17    50    1
    50    18    20    1
    51    18    51    1
    52    18    52    1
    53    19    53    1
    54    19    54    1
    55    19    55    1
