@<TRIPOS>MOLECULE
IMPHY002321
 64 69 0 0 0
SMALL
GASTEIGER

@<TRIPOS>ATOM
      1 O           7.9551   -0.1849    0.0000 O.3     1  UNL1       -0.4944
      2 O           4.3017   -0.8595    0.0000 O.3     1  UNL1       -0.5053
      3 O           6.0716   -4.8905    0.0000 O.3     1  UNL1       -0.5053
      4 O           4.3232   -4.9250    0.0000 O.3     1  UNL1       -0.5060
      5 O           9.6018   -1.8663    0.0000 O.2     1  UNL1       -0.4911
      6 O           3.4516    0.6687    0.0000 O.2     1  UNL1       -0.2864
      7 O           8.4655   -1.0824    0.0000 O.2     1  UNL1       -0.2833
      8 O           6.9079    2.6821    0.0000 O.2     1  UNL1       -0.2866
      9 O           7.8200   -4.9250    0.0000 O.2     1  UNL1       -0.2870
     10 O           2.5417    2.1621    0.0000 O.3     1  UNL1       -0.5060
     11 C           6.0716   -1.8904    0.0000 C.ar    1  UNL1        0.0088
     12 C           5.2056   -2.3904    0.0000 C.ar    1  UNL1       -0.0020
     13 C           6.0716   -0.8905    0.0000 C.ar    1  UNL1        0.0672
     14 C           6.9377   -2.3904    0.0000 C.ar    1  UNL1        0.0482
     15 C           5.2056   -3.3904    0.0000 C.ar    1  UNL1        0.0662
     16 C           6.9377   -3.3904    0.0000 C.ar    1  UNL1        0.0754
     17 C           5.1836    0.6754    0.0000 C.ar    1  UNL1        0.0754
     18 C           5.1716   -0.3662    0.0000 C.ar    1  UNL1        0.1396
     19 C           6.0477    1.1787    0.0000 C.ar    1  UNL1        0.0401
     20 C           6.0716   -3.8904    0.0000 C.ar    1  UNL1        0.1395
     21 C           6.9717   -0.3662    0.0000 C.ar    1  UNL1        0.1320
     22 C           4.3117   -1.8558    0.0000 C.ar    1  UNL1       -0.0502
     23 C           6.9596    0.6754    0.0000 C.ar    1  UNL1       -0.0076
     24 C           4.3118    2.1720    0.0000 C.ar    1  UNL1        0.0745
     25 C           4.3157    1.1721    0.0000 C.2     1  UNL1        0.2015
     26 C           5.1759    2.6754    0.0000 C.ar    1  UNL1        0.0368
     27 C           7.8316   -1.8558    0.0000 C.2     1  UNL1        0.2288
     28 C           4.3117   -3.9251    0.0000 C.ar    1  UNL1        0.1283
     29 C           6.0438    2.1787    0.0000 C.2     1  UNL1        0.1949
     30 C           3.4056   -2.3696    0.0000 C.ar    1  UNL1       -0.0464
     31 C           7.8316   -3.9251    0.0000 C.2     1  UNL1        0.1939
     32 C           3.4056   -3.4113    0.0000 C.ar    1  UNL1       -0.0165
     33 C           8.7377   -2.3696    0.0000 C.2     1  UNL1        0.1708
     34 C           8.7377   -3.4113    0.0000 C.2     1  UNL1        0.0313
     35 C           3.3999    2.6754    0.0000 C.ar    1  UNL1        0.1286
     36 C           5.1880    3.7169    0.0000 C.ar    1  UNL1       -0.0471
     37 C           4.2879    4.2412    0.0000 C.ar    1  UNL1       -0.0463
     38 C           2.5415   -1.8663    0.0000 C.3     1  UNL1       -0.0396
     39 C           3.3878    3.7169    0.0000 C.ar    1  UNL1       -0.0165
     40 C           4.2879    5.2412    0.0000 C.3     1  UNL1       -0.0396
     41 C           8.2899    0.7574    0.0000 C.3     1  UNL1        0.0788
     42 C          10.4697   -2.3630    0.0000 C.3     1  UNL1        0.0790
     43 H           4.3188   -1.2358    0.0000 H       1  UNL1        0.0626
     44 H           7.4918    0.9936    0.0000 H       1  UNL1        0.0662
     45 H           2.8699   -3.7233    0.0000 H       1  UNL1        0.0657
     46 H           9.2734   -3.7233    0.0000 H       1  UNL1        0.0694
     47 H           5.7273    4.0228    0.0000 H       1  UNL1        0.0627
     48 H           2.8485    4.0228    0.0000 H       1  UNL1        0.0657
     49 H           2.8536   -1.3306    0.0000 H       1  UNL1        0.0278
     50 H           2.0058   -1.5542    0.0000 H       1  UNL1        0.0278
     51 H           2.2294   -2.4020    0.0000 H       1  UNL1        0.0278
     52 H           3.7672   -0.5453    0.0000 H       1  UNL1        0.2922
     53 H           6.6086   -5.2004    0.0000 H       1  UNL1        0.2922
     54 H           3.7899   -5.2412    0.0000 H       1  UNL1        0.2922
     55 H           4.9079    5.2412    0.0000 H       1  UNL1        0.0278
     56 H           4.2879    5.8612    0.0000 H       1  UNL1        0.0278
     57 H           3.6679    5.2412    0.0000 H       1  UNL1        0.0278
     58 H           8.8741    0.5498    0.0000 H       1  UNL1        0.0660
     59 H           8.4975    1.3416    0.0000 H       1  UNL1        0.0660
     60 H           7.7057    0.9649    0.0000 H       1  UNL1        0.0660
     61 H           2.0000    2.4638    0.0000 H       1  UNL1        0.2922
     62 H          10.1618   -2.9011    0.0000 H       1  UNL1        0.0660
     63 H          11.0078   -2.6709    0.0000 H       1  UNL1        0.0660
     64 H          10.7776   -1.8248    0.0000 H       1  UNL1        0.0660
@<TRIPOS>BOND
     1     1    21    1
     2     1    41    1
     3     2    18    1
     4     2    52    1
     5     3    20    1
     6     3    53    1
     7     4    28    1
     8     4    54    1
     9     5    33    1
    10     5    42    1
    11     6    25    2
    12     7    27    2
    13     8    29    2
    14     9    31    2
    15    10    35    1
    16    10    61    1
    17    11    12   ar
    18    11    13    1
    19    11    14   ar
    20    12    15   ar
    21    12    22   ar
    22    13    18   ar
    23    13    21   ar
    24    14    16   ar
    25    14    27    1
    26    15    20   ar
    27    15    28   ar
    28    16    20   ar
    29    16    31    1
    30    17    18   ar
    31    17    19   ar
    32    17    25    1
    33    19    23   ar
    34    19    29    1
    35    21    23   ar
    36    22    30   ar
    37    22    43    1
    38    23    44    1
    39    24    25    1
    40    24    26   ar
    41    24    35   ar
    42    26    29    1
    43    26    36   ar
    44    27    33    1
    45    28    32   ar
    46    30    32   ar
    47    30    38    1
    48    31    34    1
    49    32    45    1
    50    33    34    2
    51    34    46    1
    52    35    39   ar
    53    36    37   ar
    54    36    47    1
    55    37    39   ar
    56    37    40    1
    57    38    49    1
    58    38    50    1
    59    38    51    1
    60    39    48    1
    61    40    55    1
    62    40    56    1
    63    40    57    1
    64    41    58    1
    65    41    59    1
    66    41    60    1
    67    42    62    1
    68    42    63    1
    69    42    64    1
