@<TRIPOS>MOLECULE
IMPHY015984
 27 27 0 0 0
SMALL
GASTEIGER

@<TRIPOS>ATOM
      1 O           6.0010   -1.5000    0.0000 O.3     1  UNL1       -0.3755
      2 O           4.2690    2.5000    0.0000 O.3     1  UNL1       -0.4914
      3 O           2.5369    1.5000    0.0000 O.3     1  UNL1       -0.5033
      4 C           5.1350    0.0000    0.0000 C.ar    1  UNL1       -0.0182
      5 C           6.0010   -0.5000    0.0000 C.3     1  UNL1        0.0728
      6 C           5.1350    1.0000    0.0000 C.ar    1  UNL1       -0.0109
      7 C           4.2690   -0.5000    0.0000 C.ar    1  UNL1       -0.0527
      8 C           4.2690    1.5000    0.0000 C.ar    1  UNL1        0.1616
      9 C           3.4030    1.0000    0.0000 C.ar    1  UNL1        0.1585
     10 C           3.4030    0.0000    0.0000 C.ar    1  UNL1       -0.0162
     11 C           6.8671   -2.0000    0.0000 C.3     1  UNL1        0.0453
     12 C           6.8671   -3.0000    0.0000 C.3     1  UNL1       -0.0416
     13 C           5.1350    3.0000    0.0000 C.3     1  UNL1        0.0790
     14 H           6.6116   -0.6077    0.0000 H       1  UNL1        0.0610
     15 H           6.2131    0.0826    0.0000 H       1  UNL1        0.0610
     16 H           5.6720    1.3100    0.0000 H       1  UNL1        0.0659
     17 H           4.2690   -1.1200    0.0000 H       1  UNL1        0.0622
     18 H           2.8660   -0.3100    0.0000 H       1  UNL1        0.0655
     19 H           7.4776   -2.1077    0.0000 H       1  UNL1        0.0557
     20 H           7.0791   -1.4174    0.0000 H       1  UNL1        0.0557
     21 H           6.2471   -3.0000    0.0000 H       1  UNL1        0.0252
     22 H           6.8671   -3.6200    0.0000 H       1  UNL1        0.0252
     23 H           7.4871   -3.0000    0.0000 H       1  UNL1        0.0252
     24 H           2.0000    1.1900    0.0000 H       1  UNL1        0.2923
     25 H           5.4450    2.4631    0.0000 H       1  UNL1        0.0660
     26 H           5.6720    3.3100    0.0000 H       1  UNL1        0.0660
     27 H           4.8250    3.5369    0.0000 H       1  UNL1        0.0660
@<TRIPOS>BOND
     1     1     5    1
     2     1    11    1
     3     2     8    1
     4     2    13    1
     5     3     9    1
     6     3    24    1
     7     4     5    1
     8     4     6   ar
     9     4     7   ar
    10     5    14    1
    11     5    15    1
    12     6     8   ar
    13     6    16    1
    14     7    10   ar
    15     7    17    1
    16     8     9   ar
    17     9    10   ar
    18    10    18    1
    19    11    12    1
    20    11    19    1
    21    11    20    1
    22    12    21    1
    23    12    22    1
    24    12    23    1
    25    13    25    1
    26    13    26    1
    27    13    27    1
