@<TRIPOS>MOLECULE
IMPHY015979
 37 37 0 0 0
SMALL
GASTEIGER

@<TRIPOS>ATOM
      1 O           4.2690   -0.5000    0.0000 O.3     1  UNL1       -0.3312
      2 O           2.5369   -2.5000    0.0000 O.3     1  UNL1       -0.3865
      3 O           4.2690   -3.5000    0.0000 O.3     1  UNL1       -0.3864
      4 O           6.0010   -0.5000    0.0000 O.3     1  UNL1       -0.4290
      5 O           6.0010   -2.5000    0.0000 O.3     1  UNL1       -0.3829
      6 O           2.5369    0.5000    0.0000 O.3     1  UNL1       -0.3924
      7 O           5.1350    1.0000    0.0000 O.2     1  UNL1       -0.2453
      8 O           7.7331    3.5000    0.0000 O.3     1  UNL1       -0.3947
      9 C           3.4030   -2.0000    0.0000 C.3     1  UNL1        0.1120
     10 C           4.2690   -2.5000    0.0000 C.3     1  UNL1        0.1152
     11 C           3.4030   -1.0000    0.0000 C.3     1  UNL1        0.1140
     12 C           5.1350   -2.0000    0.0000 C.3     1  UNL1        0.1455
     13 C           5.1350   -1.0000    0.0000 C.3     1  UNL1        0.2341
     14 C           2.5369   -0.5000    0.0000 C.3     1  UNL1        0.0731
     15 C           6.0010    0.5000    0.0000 C.2     1  UNL1        0.3369
     16 C           6.8671    1.0000    0.0000 C.2     1  UNL1        0.0318
     17 C           6.8671    2.0000    0.0000 C.3     1  UNL1        0.0018
     18 C           7.7331    2.5000    0.0000 C.3     1  UNL1        0.0484
     19 C           7.7331    0.5000    0.0000 C.2     1  UNL1       -0.0886
     20 H           3.4030   -2.6200    0.0000 H       1  UNL1        0.0647
     21 H           3.7320   -2.8100    0.0000 H       1  UNL1        0.0648
     22 H           3.4030   -0.3800    0.0000 H       1  UNL1        0.0647
     23 H           5.1350   -2.6200    0.0000 H       1  UNL1        0.0683
     24 H           5.1350   -0.3800    0.0000 H       1  UNL1        0.1085
     25 H           1.9264   -0.3923    0.0000 H       1  UNL1        0.0584
     26 H           2.3249   -1.0826    0.0000 H       1  UNL1        0.0584
     27 H           2.0000   -2.1900    0.0000 H       1  UNL1        0.2100
     28 H           3.7320   -3.8100    0.0000 H       1  UNL1        0.2100
     29 H           6.5380   -2.1900    0.0000 H       1  UNL1        0.2102
     30 H           2.0000    0.8100    0.0000 H       1  UNL1        0.2095
     31 H           6.6550    2.5826    0.0000 H       1  UNL1        0.0337
     32 H           6.2565    1.8923    0.0000 H       1  UNL1        0.0337
     33 H           7.9451    1.9174    0.0000 H       1  UNL1        0.0560
     34 H           8.3437    2.6077    0.0000 H       1  UNL1        0.0560
     35 H           7.7331   -0.1200    0.0000 H       1  UNL1        0.0540
     36 H           8.2700    0.8100    0.0000 H       1  UNL1        0.0540
     37 H           8.2700    3.8100    0.0000 H       1  UNL1        0.2094
@<TRIPOS>BOND
     1     1    11    1
     2     1    13    1
     3     9     2    1
     4     2    27    1
     5    10     3    1
     6     3    28    1
     7    13     4    1
     8     4    15    1
     9    12     5    1
    10     5    29    1
    11     6    14    1
    12     6    30    1
    13     7    15    2
    14     8    18    1
    15     8    37    1
    16     9    10    1
    17     9    11    1
    18     9    20    1
    19    10    12    1
    20    10    21    1
    21    11    14    1
    22    11    22    1
    23    12    13    1
    24    12    23    1
    25    13    24    1
    26    14    25    1
    27    14    26    1
    28    15    16    1
    29    16    17    1
    30    16    19    2
    31    17    18    1
    32    17    31    1
    33    17    32    1
    34    18    33    1
    35    18    34    1
    36    19    35    1
    37    19    36    1
