@<TRIPOS>MOLECULE
IMPHY007128
 34 35 0 0 0
SMALL
GASTEIGER

@<TRIPOS>ATOM
      1 O           7.2241   -1.7847    0.0000 O.2     1  UNL1       -0.4220
      2 O           3.7320   -1.7500    0.0000 O.3     1  UNL1       -0.4947
      3 O           8.9942   -1.7742    0.0000 O.2     1  UNL1       -0.2452
      4 C           4.5981   -0.2500    0.0000 C.ar    1  UNL1       -0.0012
      5 C           3.7320    0.2500    0.0000 C.3     1  UNL1       -0.0058
      6 C           6.3301   -0.2500    0.0000 C.ar    1  UNL1        0.0181
      7 C           4.5981   -1.2500    0.0000 C.ar    1  UNL1        0.1271
      8 C           5.4641    0.2500    0.0000 C.ar    1  UNL1       -0.0441
      9 C           6.3301   -1.2500    0.0000 C.ar    1  UNL1        0.1425
     10 C           5.4641   -1.7500    0.0000 C.ar    1  UNL1        0.0234
     11 C           3.7320    1.2500    0.0000 C.2     1  UNL1       -0.0809
     12 C           2.8660    1.7500    0.0000 C.2     1  UNL1       -0.0793
     13 C           7.2241    0.2847    0.0000 C.ar    1  UNL1       -0.0443
     14 C           8.1301   -0.2292    0.0000 C.ar    1  UNL1        0.0236
     15 C           2.8660    2.7500    0.0000 C.3     1  UNL1       -0.0440
     16 C           2.0000    1.2500    0.0000 C.3     1  UNL1       -0.0440
     17 C           8.1301   -1.2708    0.0000 C.ar    1  UNL1        0.3372
     18 C           3.7320   -2.7500    0.0000 C.3     1  UNL1        0.0788
     19 H           3.1215    0.3577    0.0000 H       1  UNL1        0.0357
     20 H           3.5200   -0.3326    0.0000 H       1  UNL1        0.0357
     21 H           5.4641    0.8700    0.0000 H       1  UNL1        0.0629
     22 H           5.4641   -2.3700    0.0000 H       1  UNL1        0.0691
     23 H           4.2690    1.5600    0.0000 H       1  UNL1        0.0575
     24 H           7.2169    0.9046    0.0000 H       1  UNL1        0.0627
     25 H           8.6659    0.0829    0.0000 H       1  UNL1        0.0689
     26 H           1.6900    1.7869    0.0000 H       1  UNL1        0.0274
     27 H           1.4631    0.9400    0.0000 H       1  UNL1        0.0274
     28 H           2.3100    0.7131    0.0000 H       1  UNL1        0.0274
     29 H           3.4860    2.7500    0.0000 H       1  UNL1        0.0274
     30 H           2.8660    3.3700    0.0000 H       1  UNL1        0.0274
     31 H           2.2460    2.7500    0.0000 H       1  UNL1        0.0274
     32 H           3.1120   -2.7500    0.0000 H       1  UNL1        0.0660
     33 H           3.7320   -3.3700    0.0000 H       1  UNL1        0.0660
     34 H           4.3520   -2.7500    0.0000 H       1  UNL1        0.0660
@<TRIPOS>BOND
     1     1     9   ar
     2     1    17   ar
     3     2     7    1
     4     2    18    1
     5     3    17    2
     6     4     5    1
     7     4     7   ar
     8     4     8   ar
     9     5    11    1
    10     5    19    1
    11     5    20    1
    12     6     8   ar
    13     6     9   ar
    14     6    13   ar
    15     7    10   ar
    16     8    21    1
    17     9    10   ar
    18    10    22    1
    19    11    12    2
    20    11    23    1
    21    12    15    1
    22    12    16    1
    23    13    14   ar
    24    13    24    1
    25    14    17   ar
    26    14    25    1
    27    15    29    1
    28    15    30    1
    29    15    31    1
    30    16    26    1
    31    16    27    1
    32    16    28    1
    33    18    32    1
    34    18    33    1
    35    18    34    1
