@<TRIPOS>MOLECULE
IMPHY011342
 38 39 0 0 0
SMALL
GASTEIGER

@<TRIPOS>ATOM
      1 O           2.6200   -2.1830    0.0000 O.3     1  UNL1       -0.3842
      2 C           3.1200    0.6830    0.0000 C.3     1  UNL1       -0.0131
      3 C           2.2540    0.1830    0.0000 C.3     1  UNL1       -0.0431
      4 C           3.1200   -1.3170    0.0000 C.3     1  UNL1        0.0884
      5 C           2.2540   -0.8170    0.0000 C.3     1  UNL1       -0.0195
      6 C           3.9860    0.1830    0.0000 C.ar    1  UNL1       -0.0379
      7 C           3.1200    1.6830    0.0000 C.3     1  UNL1       -0.0399
      8 C           3.9860   -0.8170    0.0000 C.ar    1  UNL1       -0.0129
      9 C           3.6200   -2.1830    0.0000 C.3     1  UNL1       -0.0319
     10 C           4.8800    0.7177    0.0000 C.ar    1  UNL1       -0.0550
     11 C           2.2540    2.1830    0.0000 C.3     1  UNL1       -0.0621
     12 C           3.9860    2.1830    0.0000 C.3     1  UNL1       -0.0621
     13 C           4.8800   -1.3516    0.0000 C.ar    1  UNL1       -0.0553
     14 C           5.7860    0.2038    0.0000 C.ar    1  UNL1       -0.0502
     15 C           5.7860   -0.8378    0.0000 C.ar    1  UNL1       -0.0585
     16 C           6.6501    0.7072    0.0000 C.3     1  UNL1       -0.0397
     17 H           2.5831    0.9930    0.0000 H       1  UNL1        0.0351
     18 H           2.0419    0.7656    0.0000 H       1  UNL1        0.0272
     19 H           1.6434    0.0754    0.0000 H       1  UNL1        0.0272
     20 H           1.6434   -0.7093    0.0000 H       1  UNL1        0.0296
     21 H           2.0419   -1.3996    0.0000 H       1  UNL1        0.0296
     22 H           3.6569    1.3730    0.0000 H       1  UNL1        0.0301
     23 H           3.0831   -2.4930    0.0000 H       1  UNL1        0.0261
     24 H           3.9300   -2.7200    0.0000 H       1  UNL1        0.0261
     25 H           4.1569   -1.8730    0.0000 H       1  UNL1        0.0261
     26 H           4.8728    1.3376    0.0000 H       1  UNL1        0.0623
     27 H           2.5640    2.7200    0.0000 H       1  UNL1        0.0233
     28 H           1.7170    2.4930    0.0000 H       1  UNL1        0.0233
     29 H           1.9440    1.6461    0.0000 H       1  UNL1        0.0233
     30 H           4.2960    1.6461    0.0000 H       1  UNL1        0.0233
     31 H           4.5230    2.4930    0.0000 H       1  UNL1        0.0233
     32 H           3.6760    2.7200    0.0000 H       1  UNL1        0.0233
     33 H           4.8728   -1.9716    0.0000 H       1  UNL1        0.0621
     34 H           2.0000   -2.1830    0.0000 H       1  UNL1        0.2106
     35 H           6.3218   -1.1499    0.0000 H       1  UNL1        0.0620
     36 H           6.9622    0.1714    0.0000 H       1  UNL1        0.0278
     37 H           7.1859    1.0192    0.0000 H       1  UNL1        0.0278
     38 H           6.3381    1.2429    0.0000 H       1  UNL1        0.0278
@<TRIPOS>BOND
     1     4     1    1
     2     1    34    1
     3     2     3    1
     4     2     6    1
     5     2     7    1
     6     2    17    1
     7     3     5    1
     8     3    18    1
     9     3    19    1
    10     4     5    1
    11     4     8    1
    12     4     9    1
    13     5    20    1
    14     5    21    1
    15     6     8   ar
    16     6    10   ar
    17     7    11    1
    18     7    12    1
    19     7    22    1
    20     8    13   ar
    21     9    23    1
    22     9    24    1
    23     9    25    1
    24    10    14   ar
    25    10    26    1
    26    11    27    1
    27    11    28    1
    28    11    29    1
    29    12    30    1
    30    12    31    1
    31    12    32    1
    32    13    15   ar
    33    13    33    1
    34    14    15   ar
    35    14    16    1
    36    15    35    1
    37    16    36    1
    38    16    37    1
    39    16    38    1
