@<TRIPOS>MOLECULE
IMPHY012143
 16 16 0 0 0
SMALL
GASTEIGER

@<TRIPOS>ATOM
      1 O           2.0000    1.2500    0.0000 O.2     1  UNL1       -0.2839
      2 O           3.7320    2.2500    0.0000 O.2     1  UNL1       -0.2923
      3 C           2.8660   -0.2500    0.0000 C.ar    1  UNL1        0.0249
      4 C           2.0000   -0.7500    0.0000 C.ar    1  UNL1       -0.0508
      5 C           3.7320   -0.7500    0.0000 C.ar    1  UNL1       -0.0508
      6 C           2.0000   -1.7500    0.0000 C.ar    1  UNL1       -0.0611
      7 C           3.7320   -1.7500    0.0000 C.ar    1  UNL1       -0.0611
      8 C           2.8660   -2.2500    0.0000 C.ar    1  UNL1       -0.0617
      9 C           2.8660    0.7500    0.0000 C.2     1  UNL1        0.2249
     10 C           3.7320    1.2500    0.0000 C.2     1  UNL1        0.1901
     11 H           1.4631   -0.4400    0.0000 H       1  UNL1        0.0625
     12 H           4.2690   -0.4400    0.0000 H       1  UNL1        0.0625
     13 H           1.4631   -2.0600    0.0000 H       1  UNL1        0.0618
     14 H           4.2690   -2.0600    0.0000 H       1  UNL1        0.0618
     15 H           2.8660   -2.8700    0.0000 H       1  UNL1        0.0618
     16 H           4.2690    0.9400    0.0000 H       1  UNL1        0.1116
@<TRIPOS>BOND
     1     1     9    2
     2     2    10    2
     3     3     4   ar
     4     3     5   ar
     5     3     9    1
     6     4     6   ar
     7     4    11    1
     8     5     7   ar
     9     5    12    1
    10     6     8   ar
    11     6    13    1
    12     7     8   ar
    13     7    14    1
    14     8    15    1
    15     9    10    1
    16    10    16    1
