@<TRIPOS>MOLECULE
IMPHY002300
 51 56 0 0 0
SMALL
GASTEIGER

@<TRIPOS>ATOM
      1 O           3.2328    2.3790    0.0000 O.3     1  UNL1       -0.3717
      2 O           7.0444   -0.4196    0.0000 O.2     1  UNL1       -0.2964
      3 O           2.0000   -0.7075    0.0000 O.2     1  UNL1       -0.2752
      4 N           3.7094   -0.5867    0.0000 N.am    1  UNL1       -0.2664
      5 N           6.9920    1.4931    0.0000 N.3     1  UNL1       -0.3014
      6 C           4.4464    0.0804    0.0000 C.3     1  UNL1        0.0532
      7 C           5.3124   -0.4196    0.0000 C.3     1  UNL1        0.0759
      8 C           4.4464    1.0804    0.0000 C.3     1  UNL1        0.0129
      9 C           5.3124    1.5804    0.0000 C.3     1  UNL1       -0.0050
     10 C           3.5244    1.4356    0.0000 C.3     1  UNL1        0.0724
     11 C           6.1784    1.0804    0.0000 C.3     1  UNL1        0.0137
     12 C           5.1032   -1.3915    0.0000 C.ar    1  UNL1       -0.0108
     13 C           6.1784    0.0804    0.0000 C.2     1  UNL1        0.1462
     14 C           6.2909   -0.2463    0.0000 C.3     1  UNL1       -0.0219
     15 C           4.1145   -1.4945    0.0000 C.ar    1  UNL1        0.0408
     16 C           2.7361    0.8400    0.0000 C.3     1  UNL1        0.0511
     17 C           5.4485    2.5584    0.0000 C.2     1  UNL1       -0.0535
     18 C           2.8261   -0.1439    0.0000 C.2     1  UNL1        0.2225
     19 C           6.9466    0.5004    0.0000 C.3     1  UNL1        0.0002
     20 C           6.4071    2.2965    0.0000 C.3     1  UNL1        0.0201
     21 C           5.7240   -2.2202    0.0000 C.ar    1  UNL1       -0.0558
     22 C           4.7706    3.2764    0.0000 C.2     1  UNL1       -0.0579
     23 C           3.7864    3.1967    0.0000 C.3     1  UNL1        0.0665
     24 C           3.6780   -2.4335    0.0000 C.ar    1  UNL1       -0.0400
     25 C           5.3093   -3.1690    0.0000 C.ar    1  UNL1       -0.0614
     26 C           4.2794   -3.2764    0.0000 C.ar    1  UNL1       -0.0600
     27 C           7.9497    1.7808    0.0000 C.3     1  UNL1       -0.0124
     28 H           4.4464   -0.7696    0.0000 H       1  UNL1        0.0521
     29 H           3.7103    0.6554    0.0000 H       1  UNL1        0.0350
     30 H           6.0485    2.0054    0.0000 H       1  UNL1        0.0354
     31 H           3.8428    2.2238    0.0000 H       1  UNL1        0.0604
     32 H           6.7890    0.9727    0.0000 H       1  UNL1        0.0348
     33 H           6.3905    1.6630    0.0000 H       1  UNL1        0.0348
     34 H           6.2146   -0.8616    0.0000 H       1  UNL1        0.0291
     35 H           6.8565   -0.5002    0.0000 H       1  UNL1        0.0291
     36 H           2.4599    1.3951    0.0000 H       1  UNL1        0.0384
     37 H           2.1397    0.6707    0.0000 H       1  UNL1        0.0384
     38 H           7.2715   -0.0276    0.0000 H       1  UNL1        0.0427
     39 H           7.5469    0.6556    0.0000 H       1  UNL1        0.0427
     40 H           6.9935    2.4978    0.0000 H       1  UNL1        0.0472
     41 H           6.3873    2.9162    0.0000 H       1  UNL1        0.0472
     42 H           6.3398   -2.1488    0.0000 H       1  UNL1        0.0621
     43 H           4.9929    3.8552    0.0000 H       1  UNL1        0.0595
     44 H           3.8757    3.8102    0.0000 H       1  UNL1        0.0604
     45 H           3.2083    3.4208    0.0000 H       1  UNL1        0.0604
     46 H           3.0606   -2.4906    0.0000 H       1  UNL1        0.0636
     47 H           5.6752   -3.6695    0.0000 H       1  UNL1        0.0618
     48 H           4.0245   -3.8416    0.0000 H       1  UNL1        0.0618
     49 H           8.1280    1.1870    0.0000 H       1  UNL1        0.0391
     50 H           8.5435    1.9591    0.0000 H       1  UNL1        0.0391
     51 H           7.7713    2.3746    0.0000 H       1  UNL1        0.0391
@<TRIPOS>BOND
     1     1    10    1
     2     1    23    1
     3     2    13    2
     4     3    18    2
     5     4     6    1
     6     4    15    1
     7     4    18   am
     8     5    19    1
     9     5    20    1
    10     5    27    1
    11     6     7    1
    12     6     8    1
    13     6    28    1
    14     7    12    1
    15     7    13    1
    16     7    14    1
    17     8     9    1
    18     8    10    1
    19     8    29    1
    20     9    11    1
    21     9    17    1
    22     9    30    1
    23    10    16    1
    24    10    31    1
    25    11    13    1
    26    11    32    1
    27    11    33    1
    28    12    15   ar
    29    12    21   ar
    30    14    19    1
    31    14    34    1
    32    14    35    1
    33    15    24   ar
    34    16    18    1
    35    16    36    1
    36    16    37    1
    37    17    20    1
    38    17    22    2
    39    19    38    1
    40    19    39    1
    41    20    40    1
    42    20    41    1
    43    21    25   ar
    44    21    42    1
    45    22    23    1
    46    22    43    1
    47    23    44    1
    48    23    45    1
    49    24    26   ar
    50    24    46    1
    51    25    26   ar
    52    25    47    1
    53    26    48    1
    54    27    49    1
    55    27    50    1
    56    27    51    1
