@<TRIPOS>MOLECULE
IMPHY000100
 42 43 0 0 0
SMALL
GASTEIGER

@<TRIPOS>ATOM
      1 O           3.8209    1.7916    0.0000 O.3     1  UNL1       -0.3912
      2 C           4.3802    0.1931    0.0000 C.3     1  UNL1        0.0006
      3 C           4.3802   -0.8069    0.0000 C.3     1  UNL1       -0.0098
      4 C           5.2742   -1.3415    0.0000 C.3     1  UNL1       -0.0280
      5 C           5.2742    0.7278    0.0000 C.3     1  UNL1       -0.0447
      6 C           6.1803   -0.8277    0.0000 C.3     1  UNL1       -0.0473
      7 C           3.5984    0.8166    0.0000 C.3     1  UNL1        0.0614
      8 C           6.1803    0.2140    0.0000 C.3     1  UNL1       -0.0520
      9 C           4.3802    1.1931    0.0000 C.3     1  UNL1       -0.0567
     10 C           3.5984   -1.4304    0.0000 C.2     1  UNL1       -0.0808
     11 C           2.6235    0.5941    0.0000 C.3     1  UNL1       -0.0226
     12 C           5.7641   -2.2133    0.0000 C.3     1  UNL1       -0.0593
     13 C           4.7642   -2.2017    0.0000 C.3     1  UNL1       -0.0593
     14 C           2.1896   -0.3069    0.0000 C.3     1  UNL1       -0.0296
     15 C           2.6235   -1.2078    0.0000 C.2     1  UNL1       -0.0761
     16 C           2.0000   -1.9897    0.0000 C.3     1  UNL1       -0.0438
     17 H           4.4372   -1.6549    0.0000 H       1  UNL1        0.0354
     18 H           5.6678    1.2068    0.0000 H       1  UNL1        0.0272
     19 H           4.8696    1.1976    0.0000 H       1  UNL1        0.0272
     20 H           6.3893   -1.4114    0.0000 H       1  UNL1        0.0271
     21 H           6.7911   -0.7216    0.0000 H       1  UNL1        0.0271
     22 H           3.1600    1.2550    0.0000 H       1  UNL1        0.0599
     23 H           6.7911    0.1079    0.0000 H       1  UNL1        0.0266
     24 H           6.3893    0.7976    0.0000 H       1  UNL1        0.0266
     25 H           5.0002    1.1931    0.0000 H       1  UNL1        0.0236
     26 H           4.3802    1.8131    0.0000 H       1  UNL1        0.0236
     27 H           3.7602    1.1931    0.0000 H       1  UNL1        0.0236
     28 H           3.7364   -2.0348    0.0000 H       1  UNL1        0.0575
     29 H           2.6235    1.2141    0.0000 H       1  UNL1        0.0293
     30 H           2.0190    0.7321    0.0000 H       1  UNL1        0.0293
     31 H           5.2237   -2.5170    0.0000 H       1  UNL1        0.0235
     32 H           6.0679   -2.7538    0.0000 H       1  UNL1        0.0235
     33 H           6.3046   -1.9095    0.0000 H       1  UNL1        0.0235
     34 H           4.2309   -1.8855    0.0000 H       1  UNL1        0.0235
     35 H           4.4480   -2.7350    0.0000 H       1  UNL1        0.0235
     36 H           5.2975   -2.5179    0.0000 H       1  UNL1        0.0235
     37 H           1.7049    0.0797    0.0000 H       1  UNL1        0.0311
     38 H           1.7049   -0.6934    0.0000 H       1  UNL1        0.0311
     39 H           3.3664    2.2133    0.0000 H       1  UNL1        0.2098
     40 H           1.5153   -1.6031    0.0000 H       1  UNL1        0.0274
     41 H           1.6134   -2.4744    0.0000 H       1  UNL1        0.0274
     42 H           2.4847   -2.3762    0.0000 H       1  UNL1        0.0274
@<TRIPOS>BOND
     1     7     1    1
     2     1    39    1
     3     2     3    1
     4     2     5    1
     5     2     7    1
     6     2     9    1
     7     3     4    1
     8     3    10    1
     9     3    17    1
    10     4     6    1
    11     4    12    1
    12     4    13    1
    13     5     8    1
    14     5    18    1
    15     5    19    1
    16     6     8    1
    17     6    20    1
    18     6    21    1
    19     7    11    1
    20     7    22    1
    21     8    23    1
    22     8    24    1
    23     9    25    1
    24     9    26    1
    25     9    27    1
    26    10    15    2
    27    10    28    1
    28    11    14    1
    29    11    29    1
    30    11    30    1
    31    12    31    1
    32    12    32    1
    33    12    33    1
    34    13    34    1
    35    13    35    1
    36    13    36    1
    37    14    15    1
    38    14    37    1
    39    14    38    1
    40    15    16    1
    41    16    40    1
    42    16    41    1
    43    16    42    1
