@<TRIPOS>MOLECULE
IMPHY001889
 51 56 0 0 0
SMALL
GASTEIGER

@<TRIPOS>ATOM
      1 O           5.3545   -2.5361    0.0000 O.3     1  UNL1       -0.3379
      2 O           3.4844   -3.5395    0.0000 O.3     1  UNL1       -0.3879
      3 O           7.4049   -2.8399    0.0000 O.3     1  UNL1       -0.4646
      4 O           7.5938   -1.1182    0.0000 O.2     1  UNL1       -0.2454
      5 N           2.8427   -1.0078    0.0000 N.3     1  UNL1       -0.2906
      6 N           4.6929    1.0484    0.0000 N.ar    1  UNL1       -0.3045
      7 C           4.5731   -1.1655    0.0000 C.3     1  UNL1        0.0252
      8 C           3.7910   -0.5769    0.0000 C.3     1  UNL1        0.0595
      9 C           4.4663   -2.1386    0.0000 C.3     1  UNL1        0.0965
     10 C           5.5264   -0.9700    0.0000 C.3     1  UNL1        0.0166
     11 C           6.0083   -1.8154    0.0000 C.3     1  UNL1        0.2466
     12 C           3.8839    0.4606    0.0000 C.ar    1  UNL1        0.0440
     13 C           3.5752   -2.5436    0.0000 C.3     1  UNL1        0.0946
     14 C           5.1132   -0.3239    0.0000 C.3     1  UNL1       -0.0458
     15 C           2.7719   -1.9842    0.0000 C.3     1  UNL1        0.0281
     16 C           3.0749    1.0484    0.0000 C.ar    1  UNL1       -0.0160
     17 C           2.0000   -0.3956    0.0000 C.3     1  UNL1        0.0037
     18 C           2.1169    0.6395    0.0000 C.3     1  UNL1       -0.0125
     19 C           4.3839    1.9995    0.0000 C.ar    1  UNL1        0.0525
     20 C           3.3839    1.9995    0.0000 C.ar    1  UNL1        0.0035
     21 C           7.0024   -1.9245    0.0000 C.2     1  UNL1        0.3609
     22 C           6.1121   -0.3708    0.0000 C.3     1  UNL1       -0.0646
     23 C           4.9185    2.8934    0.0000 C.ar    1  UNL1       -0.0375
     24 C           2.8492    2.8934    0.0000 C.ar    1  UNL1       -0.0523
     25 C           4.4047    3.7995    0.0000 C.ar    1  UNL1       -0.0598
     26 C           3.3631    3.7995    0.0000 C.ar    1  UNL1       -0.0611
     27 C           8.3989   -2.9490    0.0000 C.3     1  UNL1        0.0818
     28 H           4.3978    0.0183    0.0000 H       1  UNL1        0.0533
     29 H           4.3736   -2.9835    0.0000 H       1  UNL1        0.0629
     30 H           6.0943   -0.7213    0.0000 H       1  UNL1        0.0324
     31 H           5.3387   -0.3791    0.0000 H       1  UNL1        0.0324
     32 H           3.0131   -2.8053    0.0000 H       1  UNL1        0.0632
     33 H           5.2494    0.2810    0.0000 H       1  UNL1        0.0269
     34 H           4.5412   -0.0847    0.0000 H       1  UNL1        0.0269
     35 H           2.1713   -1.8302    0.0000 H       1  UNL1        0.0453
     36 H           2.5136   -2.5478    0.0000 H       1  UNL1        0.0453
     37 H           1.4049   -0.2216    0.0000 H       1  UNL1        0.0430
     38 H           1.7268   -0.9521    0.0000 H       1  UNL1        0.0430
     39 H           1.9746    1.2429    0.0000 H       1  UNL1        0.0326
     40 H           1.4980    0.6026    0.0000 H       1  UNL1        0.0326
     41 H           6.0830   -0.9901    0.0000 H       1  UNL1        0.0230
     42 H           6.7314   -0.3999    0.0000 H       1  UNL1        0.0230
     43 H           6.1412    0.2485    0.0000 H       1  UNL1        0.0230
     44 H           2.9216   -3.7995    0.0000 H       1  UNL1        0.2099
     45 H           5.5385    2.8862    0.0000 H       1  UNL1        0.0638
     46 H           2.2293    2.8862    0.0000 H       1  UNL1        0.0624
     47 H           4.7168    4.3352    0.0000 H       1  UNL1        0.0618
     48 H           3.0510    4.3352    0.0000 H       1  UNL1        0.0618
     49 H           8.3313   -3.5653    0.0000 H       1  UNL1        0.0661
     50 H           9.0152   -3.0166    0.0000 H       1  UNL1        0.0661
     51 H           8.4666   -2.3327    0.0000 H       1  UNL1        0.0661
@<TRIPOS>BOND
     1     1     9    1
     2     1    11    1
     3    13     2    1
     4     2    44    1
     5     3    21    1
     6     3    27    1
     7     4    21    2
     8     5     8    1
     9     5    15    1
    10     5    17    1
    11     6    11    1
    12     6    12   ar
    13     6    19   ar
    14     7     8    1
    15     7     9    1
    16     7    10    1
    17     7    14    1
    18     8    12    1
    19     8    28    1
    20     9    13    1
    21     9    29    1
    22    10    11    1
    23    10    30    1
    24    10    31    1
    25    11    21    1
    26    12    16   ar
    27    13    15    1
    28    13    32    1
    29    14    22    1
    30    14    33    1
    31    14    34    1
    32    15    35    1
    33    15    36    1
    34    16    18    1
    35    16    20   ar
    36    17    18    1
    37    17    37    1
    38    17    38    1
    39    18    39    1
    40    18    40    1
    41    19    20   ar
    42    19    23   ar
    43    20    24   ar
    44    22    41    1
    45    22    42    1
    46    22    43    1
    47    23    25   ar
    48    23    45    1
    49    24    26   ar
    50    24    46    1
    51    25    26   ar
    52    25    47    1
    53    26    48    1
    54    27    49    1
    55    27    50    1
    56    27    51    1
