@<TRIPOS>MOLECULE
IMPHY009101
 57 60 0 0 0
SMALL
GASTEIGER

@<TRIPOS>ATOM
      1 O           2.8660    0.5950    0.0000 O.3     1  UNL1       -0.4913
      2 O           4.5981   -3.4050    0.0000 O.3     1  UNL1       -0.4914
      3 O           4.5981    3.5950    0.0000 O.3     1  UNL1       -0.5032
      4 O           2.8660    2.5950    0.0000 O.3     1  UNL1       -0.4885
      5 O           2.8660   -2.4050    0.0000 O.3     1  UNL1       -0.4915
      6 N           8.0622   -0.4050    0.0000 N.pl3   1  UNL1       -0.3286
      7 C           8.0622    0.5950    0.0000 C.3     1  UNL1        0.0422
      8 C           9.0084    0.8997    0.0000 C.3     1  UNL1       -0.0293
      9 C           9.5920    0.0950    0.0000 C.3     1  UNL1       -0.0353
     10 C           9.0084   -0.7097    0.0000 C.3     1  UNL1        0.0124
     11 C           7.1962    1.0950    0.0000 C.2     1  UNL1       -0.0555
     12 C           7.1962   -0.9050    0.0000 C.2     1  UNL1        0.0008
     13 C           6.3301    0.5950    0.0000 C.2     1  UNL1       -0.0109
     14 C           6.3301   -0.4050    0.0000 C.2     1  UNL1        0.0034
     15 C           5.4641    1.0950    0.0000 C.ar    1  UNL1       -0.0104
     16 C           5.4641   -0.9050    0.0000 C.ar    1  UNL1       -0.0124
     17 C           4.5981    0.5950    0.0000 C.ar    1  UNL1       -0.0083
     18 C           5.4641    2.0950    0.0000 C.ar    1  UNL1       -0.0086
     19 C           5.4641   -1.9050    0.0000 C.ar    1  UNL1       -0.0085
     20 C           4.5981   -0.4050    0.0000 C.ar    1  UNL1       -0.0503
     21 C           3.7320    1.0950    0.0000 C.ar    1  UNL1        0.1657
     22 C           4.5981    2.5950    0.0000 C.ar    1  UNL1        0.1628
     23 C           4.5981   -2.4050    0.0000 C.ar    1  UNL1        0.1621
     24 C           3.7320   -0.9050    0.0000 C.ar    1  UNL1       -0.0157
     25 C           3.7320    2.0950    0.0000 C.ar    1  UNL1        0.2033
     26 C           3.7320   -1.9050    0.0000 C.ar    1  UNL1        0.1615
     27 C           2.0000    1.0950    0.0000 C.3     1  UNL1        0.0790
     28 C           5.4641   -3.9050    0.0000 C.3     1  UNL1        0.0790
     29 C           2.8660    3.5950    0.0000 C.3     1  UNL1        0.0791
     30 C           2.8660   -3.4050    0.0000 C.3     1  UNL1        0.0790
     31 H           8.1521    1.4402    0.0000 H       1  UNL1        0.0544
     32 H           9.5458    1.2090    0.0000 H       1  UNL1        0.0287
     33 H           8.7574    1.4666    0.0000 H       1  UNL1        0.0287
     34 H          10.0529   -0.3197    0.0000 H       1  UNL1        0.0281
     35 H          10.0529    0.5097    0.0000 H       1  UNL1        0.0281
     36 H           8.7574   -1.2766    0.0000 H       1  UNL1        0.0464
     37 H           9.5458   -1.0190    0.0000 H       1  UNL1        0.0464
     38 H           7.1962    1.7150    0.0000 H       1  UNL1        0.0597
     39 H           7.1962   -1.5250    0.0000 H       1  UNL1        0.0786
     40 H           4.5981   -0.0250    0.0000 H       1  UNL1        0.0661
     41 H           6.0010    2.4050    0.0000 H       1  UNL1        0.0661
     42 H           6.0010   -2.2150    0.0000 H       1  UNL1        0.0661
     43 H           4.5981    0.2150    0.0000 H       1  UNL1        0.0625
     44 H           3.1951   -0.5950    0.0000 H       1  UNL1        0.0655
     45 H           5.1350    3.9050    0.0000 H       1  UNL1        0.2923
     46 H           2.3100    1.6319    0.0000 H       1  UNL1        0.0660
     47 H           1.4631    1.4050    0.0000 H       1  UNL1        0.0660
     48 H           1.6900    0.5581    0.0000 H       1  UNL1        0.0660
     49 H           5.1541   -4.4419    0.0000 H       1  UNL1        0.0660
     50 H           6.0010   -4.2150    0.0000 H       1  UNL1        0.0660
     51 H           5.7741   -3.3681    0.0000 H       1  UNL1        0.0660
     52 H           3.4860    3.5950    0.0000 H       1  UNL1        0.0660
     53 H           2.8660    4.2150    0.0000 H       1  UNL1        0.0660
     54 H           2.2460    3.5950    0.0000 H       1  UNL1        0.0660
     55 H           2.2460   -3.4050    0.0000 H       1  UNL1        0.0660
     56 H           2.8660   -4.0250    0.0000 H       1  UNL1        0.0660
     57 H           3.4860   -3.4050    0.0000 H       1  UNL1        0.0660
@<TRIPOS>BOND
     1     1    21    1
     2     1    27    1
     3     2    23    1
     4     2    28    1
     5     3    22    1
     6     3    45    1
     7     4    25    1
     8     4    29    1
     9     5    26    1
    10     5    30    1
    11     6     7    1
    12     6    10    1
    13     6    12    1
    14     7     8    1
    15     7    11    1
    16     7    31    1
    17     8     9    1
    18     8    32    1
    19     8    33    1
    20     9    10    1
    21     9    34    1
    22     9    35    1
    23    10    36    1
    24    10    37    1
    25    11    13    2
    26    11    38    1
    27    12    14    2
    28    12    39    1
    29    13    14    1
    30    13    15    1
    31    14    16    1
    32    15    17   ar
    33    15    18   ar
    34    16    19   ar
    35    16    20   ar
    36    17    21   ar
    37    17    40    1
    38    18    22   ar
    39    18    41    1
    40    19    23   ar
    41    19    42    1
    42    20    24   ar
    43    20    43    1
    44    21    25   ar
    45    22    25   ar
    46    23    26   ar
    47    24    26   ar
    48    24    44    1
    49    27    46    1
    50    27    47    1
    51    27    48    1
    52    28    49    1
    53    28    50    1
    54    28    51    1
    55    29    52    1
    56    29    53    1
    57    29    54    1
    58    30    55    1
    59    30    56    1
    60    30    57    1
