@<TRIPOS>MOLECULE
IMPHY010861
 30 31 0 0 0
SMALL
GASTEIGER

@<TRIPOS>ATOM
      1 O           7.1279   -0.1224    0.0000 O.2     1  UNL1       -0.2924
      2 N           2.8660   -0.6224    0.0000 N.3     1  UNL1       -0.3042
      3 C           4.5981   -0.6224    0.0000 C.3     1  UNL1        0.0031
      4 C           4.5981    0.3776    0.0000 C.2     1  UNL1       -0.0573
      5 C           5.5443   -0.9271    0.0000 C.3     1  UNL1        0.0264
      6 C           3.7320    0.8776    0.0000 C.3     1  UNL1       -0.0093
      7 C           3.7320   -1.1224    0.0000 C.3     1  UNL1        0.0058
      8 C           2.8660    0.3776    0.0000 C.3     1  UNL1        0.0049
      9 C           5.5443    0.6824    0.0000 C.2     1  UNL1       -0.0191
     10 C           6.1279   -0.1224    0.0000 C.2     1  UNL1        0.1595
     11 C           5.8550   -1.8776    0.0000 C.3     1  UNL1       -0.0548
     12 C           3.7320    1.8776    0.0000 C.3     1  UNL1       -0.0575
     13 C           2.0000   -1.1224    0.0000 C.3     1  UNL1       -0.0127
     14 H           4.6880   -1.4676    0.0000 H       1  UNL1        0.0365
     15 H           5.1068   -1.3665    0.0000 H       1  UNL1        0.0384
     16 H           4.2690    1.1876    0.0000 H       1  UNL1        0.0356
     17 H           3.3335   -1.5973    0.0000 H       1  UNL1        0.0432
     18 H           4.1306   -1.5973    0.0000 H       1  UNL1        0.0432
     19 H           2.6540    0.9602    0.0000 H       1  UNL1        0.0432
     20 H           2.2554    0.2700    0.0000 H       1  UNL1        0.0432
     21 H           5.7369    1.2717    0.0000 H       1  UNL1        0.0652
     22 H           5.2656   -2.0702    0.0000 H       1  UNL1        0.0237
     23 H           6.0476   -2.4670    0.0000 H       1  UNL1        0.0237
     24 H           6.4443   -1.6850    0.0000 H       1  UNL1        0.0237
     25 H           4.3520    1.8776    0.0000 H       1  UNL1        0.0236
     26 H           3.7320    2.4976    0.0000 H       1  UNL1        0.0236
     27 H           3.1120    1.8776    0.0000 H       1  UNL1        0.0236
     28 H           1.6900   -0.5854    0.0000 H       1  UNL1        0.0391
     29 H           1.4631   -1.4324    0.0000 H       1  UNL1        0.0391
     30 H           2.3100   -1.6593    0.0000 H       1  UNL1        0.0391
@<TRIPOS>BOND
     1     1    10    2
     2     2     7    1
     3     2     8    1
     4     2    13    1
     5     3     4    1
     6     3     5    1
     7     3     7    1
     8     3    14    1
     9     4     6    1
    10     4     9    2
    11     5    10    1
    12     5    11    1
    13     5    15    1
    14     6     8    1
    15     6    12    1
    16     6    16    1
    17     7    17    1
    18     7    18    1
    19     8    19    1
    20     8    20    1
    21     9    10    1
    22     9    21    1
    23    11    22    1
    24    11    23    1
    25    11    24    1
    26    12    25    1
    27    12    26    1
    28    12    27    1
    29    13    28    1
    30    13    29    1
    31    13    30    1
