@<TRIPOS>MOLECULE
IMPHY016559
 51 53 0 0 0
SMALL
GASTEIGER

@<TRIPOS>ATOM
      1 O           5.3693    1.9986    0.0000 O.3     1  UNL1       -0.3733
      2 C           4.0430   -0.7554    0.0000 C.3     1  UNL1       -0.0229
      3 C           3.1420   -0.3215    0.0000 C.3     1  UNL1       -0.0296
      4 C           2.9195    0.6534    0.0000 C.3     1  UNL1       -0.0261
      5 C           3.5430    1.4352    0.0000 C.3     1  UNL1       -0.0062
      6 C           4.1499    0.4214    0.0000 C.3     1  UNL1       -0.0409
      7 C           3.9070   -1.7401    0.0000 C.3     1  UNL1       -0.0379
      8 C           4.9440   -0.3215    0.0000 C.3     1  UNL1       -0.0442
      9 C           4.5430    1.4352    0.0000 C.3     1  UNL1        0.0701
     10 C           2.4569   -1.0418    0.0000 C.3     1  UNL1       -0.0489
     11 C           2.9288   -1.9168    0.0000 C.3     1  UNL1       -0.0497
     12 C           5.1665    0.6534    0.0000 C.3     1  UNL1       -0.0232
     13 C           2.2616    1.4065    0.0000 C.3     1  UNL1       -0.0592
     14 C           2.0000    0.2604    0.0000 C.3     1  UNL1       -0.0592
     15 C           4.6286   -2.4324    0.0000 C.3     1  UNL1       -0.0619
     16 C           4.4683    2.4324    0.0000 C.3     1  UNL1       -0.0355
     17 C           6.2702    1.5647    0.0000 C.3     1  UNL1        0.0481
     18 C           7.0965    2.1280    0.0000 C.3     1  UNL1       -0.0323
     19 C           7.9974    1.6941    0.0000 C.3     1  UNL1       -0.0632
     20 H           2.5442   -0.1574    0.0000 H       1  UNL1        0.0311
     21 H           3.2740    1.9938    0.0000 H       1  UNL1        0.0334
     22 H           4.7199    0.1775    0.0000 H       1  UNL1        0.0274
     23 H           4.5577    0.8884    0.0000 H       1  UNL1        0.0274
     24 H           3.7279   -2.3337    0.0000 H       1  UNL1        0.0304
     25 H           5.0820   -0.9260    0.0000 H       1  UNL1        0.0272
     26 H           5.5640   -0.3215    0.0000 H       1  UNL1        0.0272
     27 H           2.0551   -0.5697    0.0000 H       1  UNL1        0.0268
     28 H           1.9452   -1.3918    0.0000 H       1  UNL1        0.0268
     29 H           2.3551   -2.1521    0.0000 H       1  UNL1        0.0268
     30 H           3.1025   -2.5120    0.0000 H       1  UNL1        0.0268
     31 H           5.7251    0.3844    0.0000 H       1  UNL1        0.0293
     32 H           5.5531    1.1382    0.0000 H       1  UNL1        0.0293
     33 H           2.7285    1.8144    0.0000 H       1  UNL1        0.0235
     34 H           1.8537    1.8734    0.0000 H       1  UNL1        0.0235
     35 H           1.7947    0.9986    0.0000 H       1  UNL1        0.0235
     36 H           1.7563    0.8305    0.0000 H       1  UNL1        0.0235
     37 H           1.4299    0.0167    0.0000 H       1  UNL1        0.0235
     38 H           2.2437   -0.3097    0.0000 H       1  UNL1        0.0235
     39 H           4.1994   -2.8798    0.0000 H       1  UNL1        0.0233
     40 H           5.0760   -2.8617    0.0000 H       1  UNL1        0.0233
     41 H           5.0578   -1.9851    0.0000 H       1  UNL1        0.0233
     42 H           5.0866    2.4788    0.0000 H       1  UNL1        0.0257
     43 H           4.4220    3.0507    0.0000 H       1  UNL1        0.0257
     44 H           3.8500    2.3861    0.0000 H       1  UNL1        0.0257
     45 H           5.9083    1.0613    0.0000 H       1  UNL1        0.0560
     46 H           6.7031    1.1208    0.0000 H       1  UNL1        0.0560
     47 H           7.4584    2.6314    0.0000 H       1  UNL1        0.0285
     48 H           6.6636    2.5718    0.0000 H       1  UNL1        0.0285
     49 H           7.7284    1.1355    0.0000 H       1  UNL1        0.0230
     50 H           8.5560    1.4251    0.0000 H       1  UNL1        0.0230
     51 H           8.2664    2.2527    0.0000 H       1  UNL1        0.0230
@<TRIPOS>BOND
     1     1     9    1
     2     1    17    1
     3     2     3    1
     4     2     6    1
     5     2     7    1
     6     2     8    1
     7     3     4    1
     8     3    10    1
     9     3    20    1
    10     4     5    1
    11     4    13    1
    12     4    14    1
    13     5     6    1
    14     5     9    1
    15     5    21    1
    16     6    22    1
    17     6    23    1
    18     7    11    1
    19     7    15    1
    20     7    24    1
    21     8    12    1
    22     8    25    1
    23     8    26    1
    24     9    12    1
    25     9    16    1
    26    10    11    1
    27    10    27    1
    28    10    28    1
    29    11    29    1
    30    11    30    1
    31    12    31    1
    32    12    32    1
    33    13    33    1
    34    13    34    1
    35    13    35    1
    36    14    36    1
    37    14    37    1
    38    14    38    1
    39    15    39    1
    40    15    40    1
    41    15    41    1
    42    16    42    1
    43    16    43    1
    44    16    44    1
    45    17    18    1
    46    17    45    1
    47    17    46    1
    48    18    19    1
    49    18    47    1
    50    18    48    1
    51    19    49    1
    52    19    50    1
    53    19    51    1
