@<TRIPOS>MOLECULE
IMPHY006226
 18 18 0 0 0
SMALL
GASTEIGER

@<TRIPOS>ATOM
      1 O           4.2601   -1.0199    0.0000 O.3     1  UNL1       -0.4528
      2 O           5.5202    0.2402    0.0000 O.2     1  UNL1       -0.2435
      3 N           3.7601    1.5189    0.0000 N.pl3   1  UNL1       -0.3524
      4 C           3.2601   -1.0199    0.0000 C.3     1  UNL1        0.1236
      5 C           2.9511   -0.0689    0.0000 C.2     1  UNL1       -0.0054
      6 C           3.7601    0.5189    0.0000 C.2     1  UNL1        0.1122
      7 C           2.6723   -1.8289    0.0000 C.3     1  UNL1       -0.0237
      8 C           2.0000    0.2402    0.0000 C.3     1  UNL1       -0.0381
      9 C           4.5691   -0.0689    0.0000 C.2     1  UNL1        0.3536
     10 H           3.6460   -1.7773    0.0000 H       1  UNL1        0.0780
     11 H           2.1707   -1.4645    0.0000 H       1  UNL1        0.0268
     12 H           2.3079   -2.3305    0.0000 H       1  UNL1        0.0268
     13 H           3.1739   -2.1934    0.0000 H       1  UNL1        0.0268
     14 H           2.1916    0.8298    0.0000 H       1  UNL1        0.0276
     15 H           1.4103    0.4318    0.0000 H       1  UNL1        0.0276
     16 H           1.8084   -0.3495    0.0000 H       1  UNL1        0.0276
     17 H           4.2970    1.8289    0.0000 H       1  UNL1        0.1425
     18 H           3.2231    1.8289    0.0000 H       1  UNL1        0.1425
@<TRIPOS>BOND
     1     1     4    1
     2     1     9    1
     3     2     9    2
     4     3     6    1
     5     3    17    1
     6     3    18    1
     7     4     5    1
     8     4     7    1
     9     4    10    1
    10     5     6    2
    11     5     8    1
    12     6     9    1
    13     7    11    1
    14     7    12    1
    15     7    13    1
    16     8    14    1
    17     8    15    1
    18     8    16    1
