@<TRIPOS>MOLECULE
IMPHY006760
 31 35 0 0 0
SMALL
GASTEIGER

@<TRIPOS>ATOM
      1 C           6.5251    1.1511    0.0000 C.3     1  UNL1        0.0001
      2 C           7.4191    1.6858    0.0000 C.3     1  UNL1       -0.0188
      3 C           8.3251    1.1719    0.0000 C.3     1  UNL1       -0.0034
      4 C           6.5251    0.1511    0.0000 C.3     1  UNL1        0.0143
      5 C           9.0875    1.8727    0.0000 C.3     1  UNL1       -0.0003
      6 C           8.3251    0.1303    0.0000 C.3     1  UNL1        0.0000
      7 C           7.4191   -0.3835    0.0000 C.3     1  UNL1        0.0037
      8 C           7.6292    2.6997    0.0000 C.3     1  UNL1       -0.0039
      9 C           5.6591    1.6511    0.0000 C.3     1  UNL1        0.0043
     10 C           5.6591   -0.3489    0.0000 C.2     1  UNL1       -0.0527
     11 C           8.6582    2.8150    0.0000 C.3     1  UNL1       -0.0003
     12 C           3.8831   -0.3557    0.0000 C.3     1  UNL1        0.0146
     13 C           4.7931    0.1511    0.0000 C.2     1  UNL1       -0.0527
     14 C           4.7931    1.1511    0.0000 C.3     1  UNL1        0.0214
     15 C           3.8751   -1.3973    0.0000 C.3     1  UNL1        0.0037
     16 C           6.5251    2.1511    0.0000 C.3     1  UNL1        0.0000
     17 C           9.1950    0.6786    0.0000 C.3     1  UNL1       -0.0003
     18 C           6.5251   -0.8489    0.0000 C.3     1  UNL1        0.0040
     19 C           5.6752   -1.3904    0.0000 C.3     1  UNL1        0.0214
     20 C          10.0675    1.6740    0.0000 C.3     1  UNL1       -0.0000
     21 C           4.7771   -1.9181    0.0000 C.3     1  UNL1        0.0046
     22 C           2.9396   -1.9470    0.0000 C.3     1  UNL1        0.0003
     23 C           2.9562    0.2084    0.0000 C.3     1  UNL1        0.0037
     24 C           2.0000   -1.4045    0.0000 C.3     1  UNL1        0.0000
     25 C           3.8908    0.6443    0.0000 C.3     1  UNL1        0.0040
     26 C           2.0084   -0.3196    0.0000 C.3     1  UNL1        0.0003
     27 C          10.3855    0.7259    0.0000 C.3     1  UNL1       -0.0000
     28 C          10.7296    2.4235    0.0000 C.3     1  UNL1       -0.0000
     29 C           3.4430   -2.8111    0.0000 C.3     1  UNL1        0.0000
     30 C           2.4430   -2.8150    0.0000 C.3     1  UNL1        0.0000
     31 H           6.7671    2.1493    0.0000 H       1  UNL1        0.0319
@<TRIPOS>BOND
     1     1     2    1
     2     1     4    1
     3     1     9    1
     4     1    16    1
     5     2     3    1
     6     2     8    1
     7     2    31    1
     8     3     5    1
     9     3     6    1
    10     3    17    1
    11     4     7    1
    12     4    10    1
    13     4    18    1
    14     5    11    1
    15     5    20    1
    16     6     7    1
    17     8    11    1
    18     9    14    1
    19    10    13    2
    20    10    19    1
    21    12    13    1
    22    12    15    1
    23    12    23    1
    24    12    25    1
    25    13    14    1
    26    15    21    1
    27    15    22    1
    28    19    21    1
    29    20    27    1
    30    20    28    1
    31    22    24    1
    32    22    29    1
    33    22    30    1
    34    23    26    1
    35    24    26    1
