@<TRIPOS>MOLECULE
IMPHY005126
 40 40 0 0 0
SMALL
GASTEIGER

@<TRIPOS>ATOM
      1 O           2.8660   -4.8450    0.0000 O.3     1  UNL1       -0.5068
      2 C           4.5981    1.1550    0.0000 C.3     1  UNL1       -0.0530
      3 C           4.5981    2.1550    0.0000 C.3     1  UNL1       -0.0531
      4 C           3.7320    0.6550    0.0000 C.3     1  UNL1       -0.0528
      5 C           5.4641    2.6550    0.0000 C.3     1  UNL1       -0.0531
      6 C           3.7320   -0.3450    0.0000 C.3     1  UNL1       -0.0491
      7 C           5.4641    3.6550    0.0000 C.3     1  UNL1       -0.0533
      8 C           2.8660   -0.8450    0.0000 C.3     1  UNL1       -0.0277
      9 C           6.3301    4.1550    0.0000 C.3     1  UNL1       -0.0559
     10 C           2.8660   -1.8450    0.0000 C.ar    1  UNL1       -0.0471
     11 C           6.3301    5.1550    0.0000 C.3     1  UNL1       -0.0653
     12 C           2.0000   -2.3450    0.0000 C.ar    1  UNL1       -0.0551
     13 C           3.7320   -2.3450    0.0000 C.ar    1  UNL1       -0.0551
     14 C           2.0000   -3.3450    0.0000 C.ar    1  UNL1       -0.0199
     15 C           3.7320   -3.3450    0.0000 C.ar    1  UNL1       -0.0199
     16 C           2.8660   -3.8450    0.0000 C.ar    1  UNL1        0.1169
     17 H           4.8101    0.5724    0.0000 H       1  UNL1        0.0265
     18 H           5.2087    1.2627    0.0000 H       1  UNL1        0.0265
     19 H           4.3860    2.7376    0.0000 H       1  UNL1        0.0265
     20 H           3.9875    2.0473    0.0000 H       1  UNL1        0.0265
     21 H           3.5200    1.2376    0.0000 H       1  UNL1        0.0265
     22 H           3.1215    0.5473    0.0000 H       1  UNL1        0.0265
     23 H           5.6762    2.0724    0.0000 H       1  UNL1        0.0265
     24 H           6.0747    2.7627    0.0000 H       1  UNL1        0.0265
     25 H           3.9441   -0.9276    0.0000 H       1  UNL1        0.0268
     26 H           4.3426   -0.2373    0.0000 H       1  UNL1        0.0268
     27 H           5.2520    4.2376    0.0000 H       1  UNL1        0.0265
     28 H           4.8535    3.5473    0.0000 H       1  UNL1        0.0265
     29 H           2.6540   -0.2624    0.0000 H       1  UNL1        0.0313
     30 H           2.2554   -0.9527    0.0000 H       1  UNL1        0.0313
     31 H           6.5422    3.5724    0.0000 H       1  UNL1        0.0263
     32 H           6.9407    4.2627    0.0000 H       1  UNL1        0.0263
     33 H           6.9501    5.1550    0.0000 H       1  UNL1        0.0230
     34 H           6.3301    5.7750    0.0000 H       1  UNL1        0.0230
     35 H           5.7101    5.1550    0.0000 H       1  UNL1        0.0230
     36 H           1.4631   -2.0350    0.0000 H       1  UNL1        0.0621
     37 H           4.2690   -2.0350    0.0000 H       1  UNL1        0.0621
     38 H           1.4631   -3.6550    0.0000 H       1  UNL1        0.0654
     39 H           4.2690   -3.6550    0.0000 H       1  UNL1        0.0654
     40 H           2.3291   -5.1550    0.0000 H       1  UNL1        0.2921
@<TRIPOS>BOND
     1     1    16    1
     2     1    40    1
     3     2     3    1
     4     2     4    1
     5     2    17    1
     6     2    18    1
     7     3     5    1
     8     3    19    1
     9     3    20    1
    10     4     6    1
    11     4    21    1
    12     4    22    1
    13     5     7    1
    14     5    23    1
    15     5    24    1
    16     6     8    1
    17     6    25    1
    18     6    26    1
    19     7     9    1
    20     7    27    1
    21     7    28    1
    22     8    10    1
    23     8    29    1
    24     8    30    1
    25     9    11    1
    26     9    31    1
    27     9    32    1
    28    10    12   ar
    29    10    13   ar
    30    11    33    1
    31    11    34    1
    32    11    35    1
    33    12    14   ar
    34    12    36    1
    35    13    15   ar
    36    13    37    1
    37    14    16   ar
    38    14    38    1
    39    15    16   ar
    40    15    39    1
