@<TRIPOS>MOLECULE
IMPHY001353
 26 27 0 0 0
SMALL
GASTEIGER

@<TRIPOS>ATOM
      1 O           5.5321    0.1581    0.0000 O.2     1  UNL1       -0.4257
      2 O           2.9176   -1.3765    0.0000 O.3     1  UNL1       -0.5059
      3 O           4.6660   -1.3419    0.0000 O.2     1  UNL1       -0.2444
      4 C           3.8000    1.1581    0.0000 C.ar    1  UNL1       -0.0043
      5 C           3.8000    0.1581    0.0000 C.ar    1  UNL1        0.1079
      6 C           4.6660    1.6581    0.0000 C.ar    1  UNL1       -0.0145
      7 C           5.5321    1.1581    0.0000 C.ar    1  UNL1        0.1214
      8 C           2.9061   -0.3766    0.0000 C.ar    1  UNL1        0.1314
      9 C           2.9061    1.6927    0.0000 C.ar    1  UNL1       -0.0535
     10 C           4.6660   -0.3419    0.0000 C.ar    1  UNL1        0.3483
     11 C           6.3981    1.6581    0.0000 C.3     1  UNL1        0.0673
     12 C           2.0000    0.1372    0.0000 C.ar    1  UNL1       -0.0193
     13 C           2.0000    1.1789    0.0000 C.ar    1  UNL1       -0.0577
     14 C           7.2641    1.1581    0.0000 C.1     1  UNL1       -0.0947
     15 C           8.1301    0.6581    0.0000 C.1     1  UNL1       -0.1052
     16 C           8.9962    0.1581    0.0000 C.3     1  UNL1       -0.0026
     17 H           4.6660    2.2781    0.0000 H       1  UNL1        0.0657
     18 H           2.9132    2.3127    0.0000 H       1  UNL1        0.0624
     19 H           6.7966    2.1330    0.0000 H       1  UNL1        0.0477
     20 H           5.9996    2.1330    0.0000 H       1  UNL1        0.0477
     21 H           1.4643   -0.1748    0.0000 H       1  UNL1        0.0654
     22 H           1.4643    1.4909    0.0000 H       1  UNL1        0.0619
     23 H           2.3843   -1.6927    0.0000 H       1  UNL1        0.2922
     24 H           8.6862   -0.3789    0.0000 H       1  UNL1        0.0362
     25 H           9.5331   -0.1519    0.0000 H       1  UNL1        0.0362
     26 H           9.3062    0.6950    0.0000 H       1  UNL1        0.0362
@<TRIPOS>BOND
     1     1     7   ar
     2     1    10   ar
     3     2     8    1
     4     2    23    1
     5     3    10    2
     6     4     5   ar
     7     4     6   ar
     8     4     9   ar
     9     5     8   ar
    10     5    10   ar
    11     6     7   ar
    12     6    17    1
    13     7    11    1
    14     8    12   ar
    15     9    13   ar
    16     9    18    1
    17    11    14    1
    18    11    19    1
    19    11    20    1
    20    12    13   ar
    21    12    21    1
    22    13    22    1
    23    14    15    3
    24    15    16    1
    25    16    24    1
    26    16    25    1
    27    16    26    1
