@<TRIPOS>MOLECULE
IMPHY017136
 39 40 0 0 0
SMALL
GASTEIGER

@<TRIPOS>ATOM
      1 C           5.3792   -0.7512    0.0000 C.2     1  UNL1       -0.0633
      2 C           6.3189    0.5582    0.0000 C.3     1  UNL1       -0.0184
      3 C           4.6005   -1.3786    0.0000 C.3     1  UNL1       -0.0219
      4 C           5.3742    0.2488    0.0000 C.2     1  UNL1       -0.0451
      5 C           6.3269   -1.0512    0.0000 C.3     1  UNL1       -0.0304
      6 C           6.9065   -0.2436    0.0000 C.3     1  UNL1       -0.0427
      7 C           3.6244   -1.1609    0.0000 C.3     1  UNL1       -0.0430
      8 C           3.1861   -0.2621    0.0000 C.3     1  UNL1       -0.0307
      9 C           3.6155    0.6410    0.0000 C.2     1  UNL1       -0.0667
     10 C           4.5893    0.8684    0.0000 C.2     1  UNL1       -0.0589
     11 C           6.6248    1.5103    0.0000 C.3     1  UNL1       -0.0584
     12 C           4.8278   -2.3524    0.0000 C.3     1  UNL1       -0.0587
     13 C           2.9881    1.4197    0.0000 C.3     1  UNL1       -0.0253
     14 C           2.0000    1.2657    0.0000 C.3     1  UNL1       -0.0589
     15 C           3.3488    2.3524    0.0000 C.3     1  UNL1       -0.0589
     16 H           5.8792    0.9954    0.0000 H       1  UNL1        0.0346
     17 H           5.1867   -1.5804    0.0000 H       1  UNL1        0.0343
     18 H           6.0787   -1.6194    0.0000 H       1  UNL1        0.0310
     19 H           6.8658   -1.3578    0.0000 H       1  UNL1        0.0310
     20 H           7.3694   -0.6560    0.0000 H       1  UNL1        0.0274
     21 H           7.3653    0.1734    0.0000 H       1  UNL1        0.0274
     22 H           3.0207   -1.3019    0.0000 H       1  UNL1        0.0274
     23 H           3.6275   -1.7809    0.0000 H       1  UNL1        0.0274
     24 H           2.6994    0.1220    0.0000 H       1  UNL1        0.0310
     25 H           2.7033   -0.6511    0.0000 H       1  UNL1        0.0310
     26 H           4.7242    1.4735    0.0000 H       1  UNL1        0.0620
     27 H           7.2151    1.3206    0.0000 H       1  UNL1        0.0236
     28 H           6.8145    2.1006    0.0000 H       1  UNL1        0.0236
     29 H           6.0345    1.7000    0.0000 H       1  UNL1        0.0236
     30 H           4.2241   -2.4934    0.0000 H       1  UNL1        0.0235
     31 H           4.9688   -2.9562    0.0000 H       1  UNL1        0.0235
     32 H           5.4316   -2.2114    0.0000 H       1  UNL1        0.0235
     33 H           2.7644    0.8414    0.0000 H       1  UNL1        0.0340
     34 H           1.9045    1.8783    0.0000 H       1  UNL1        0.0235
     35 H           1.3874    1.1703    0.0000 H       1  UNL1        0.0235
     36 H           2.0955    0.6531    0.0000 H       1  UNL1        0.0235
     37 H           3.9270    2.1288    0.0000 H       1  UNL1        0.0235
     38 H           3.5724    2.9306    0.0000 H       1  UNL1        0.0235
     39 H           2.7705    2.5760    0.0000 H       1  UNL1        0.0235
@<TRIPOS>BOND
     1     1     3    1
     2     1     4    2
     3     1     5    1
     4     2     4    1
     5     2     6    1
     6     2    11    1
     7     2    16    1
     8     3     7    1
     9     3    12    1
    10     3    17    1
    11     4    10    1
    12     5     6    1
    13     5    18    1
    14     5    19    1
    15     6    20    1
    16     6    21    1
    17     7     8    1
    18     7    22    1
    19     7    23    1
    20     8     9    1
    21     8    24    1
    22     8    25    1
    23     9    10    2
    24     9    13    1
    25    10    26    1
    26    11    27    1
    27    11    28    1
    28    11    29    1
    29    12    30    1
    30    12    31    1
    31    12    32    1
    32    13    14    1
    33    13    15    1
    34    13    33    1
    35    14    34    1
    36    14    35    1
    37    14    36    1
    38    15    37    1
    39    15    38    1
    40    15    39    1
