@<TRIPOS>MOLECULE
IMPHY006755
 106 107 0 0 0
SMALL
GASTEIGER

@<TRIPOS>ATOM
      1 O          13.9253   -2.1184    0.0000 O.3     1  UNL1       -0.3683
      2 O          15.8933   -2.8178    0.0000 O.3     1  UNL1       -0.3892
      3 O          11.9573   -2.8178    0.0000 O.3     1  UNL1       -0.3892
      4 O          24.7950    1.6245    0.0000 O.3     1  UNL1       -0.4611
      5 O          20.9759   -1.7375    0.0000 O.3     1  UNL1       -0.3918
      6 O          25.9164    3.0094    0.0000 O.2     1  UNL1       -0.2505
      7 O          27.5532   -0.3299    0.0000 O.2     1  UNL1       -0.2977
      8 C          14.7343   -1.5307    0.0000 C.3     1  UNL1        0.0850
      9 C          13.1163   -1.5307    0.0000 C.3     1  UNL1        0.0850
     10 C          14.4253   -0.5796    0.0000 C.3     1  UNL1       -0.0217
     11 C          13.4253   -0.5796    0.0000 C.3     1  UNL1       -0.0217
     12 C          15.6854   -1.8397    0.0000 C.3     1  UNL1        0.0813
     13 C          12.1652   -1.8397    0.0000 C.3     1  UNL1        0.0813
     14 C          16.4285   -1.1706    0.0000 C.3     1  UNL1       -0.0244
     15 C          11.4221   -1.1706    0.0000 C.3     1  UNL1       -0.0244
     16 C          17.3796   -1.4796    0.0000 C.3     1  UNL1       -0.0506
     17 C          10.4710   -1.4796    0.0000 C.3     1  UNL1       -0.0506
     18 C          18.1227   -0.8104    0.0000 C.3     1  UNL1       -0.0529
     19 C           9.7279   -0.8104    0.0000 C.3     1  UNL1       -0.0530
     20 C          24.8995    0.6300    0.0000 C.3     1  UNL1        0.1039
     21 C          19.0738   -1.1195    0.0000 C.3     1  UNL1       -0.0507
     22 C          25.8777    0.4221    0.0000 C.3     1  UNL1       -0.0024
     23 C          26.3777    1.2881    0.0000 C.3     1  UNL1        0.0664
     24 C          24.1564   -0.0391    0.0000 C.3     1  UNL1       -0.0156
     25 C          19.8169   -0.4503    0.0000 C.3     1  UNL1       -0.0269
     26 C          20.7680   -0.7593    0.0000 C.3     1  UNL1        0.0553
     27 C          23.2053    0.2699    0.0000 C.3     1  UNL1       -0.0496
     28 C           8.7768   -1.1195    0.0000 C.3     1  UNL1       -0.0531
     29 C          21.5111   -0.0902    0.0000 C.3     1  UNL1       -0.0269
     30 C          22.4622   -0.3992    0.0000 C.3     1  UNL1       -0.0506
     31 C           8.0337   -0.4503    0.0000 C.3     1  UNL1       -0.0531
     32 C          25.7085    2.0313    0.0000 C.2     1  UNL1        0.3110
     33 C          27.3722    1.3927    0.0000 C.3     1  UNL1        0.0186
     34 C           7.0826   -0.7593    0.0000 C.3     1  UNL1       -0.0531
     35 C           6.3395   -0.0902    0.0000 C.3     1  UNL1       -0.0531
     36 C          27.9600    0.5836    0.0000 C.2     1  UNL1        0.1311
     37 C           5.3884   -0.3992    0.0000 C.3     1  UNL1       -0.0531
     38 C           4.6453    0.2699    0.0000 C.3     1  UNL1       -0.0531
     39 C          28.9545    0.6882    0.0000 C.3     1  UNL1       -0.0060
     40 C           3.6942   -0.0391    0.0000 C.3     1  UNL1       -0.0533
     41 C           2.9511    0.6300    0.0000 C.3     1  UNL1       -0.0559
     42 C           2.0000    0.3210    0.0000 C.3     1  UNL1       -0.0653
     43 H          14.8673   -2.3702    0.0000 H       1  UNL1        0.0622
     44 H          12.9833   -2.3702    0.0000 H       1  UNL1        0.0622
     45 H          15.0317   -0.4507    0.0000 H       1  UNL1        0.0292
     46 H          14.3605    0.0370    0.0000 H       1  UNL1        0.0292
     47 H          13.4901    0.0370    0.0000 H       1  UNL1        0.0292
     48 H          12.8188   -0.4507    0.0000 H       1  UNL1        0.0292
     49 H          16.2750   -2.0313    0.0000 H       1  UNL1        0.0619
     50 H          11.5756   -2.0313    0.0000 H       1  UNL1        0.0619
     51 H          16.7196   -0.6231    0.0000 H       1  UNL1        0.0291
     52 H          15.9399   -0.7888    0.0000 H       1  UNL1        0.0291
     53 H          11.9106   -0.7888    0.0000 H       1  UNL1        0.0291
     54 H          11.1310   -0.6231    0.0000 H       1  UNL1        0.0291
     55 H          17.0885   -2.0270    0.0000 H       1  UNL1        0.0266
     56 H          17.8681   -1.8613    0.0000 H       1  UNL1        0.0266
     57 H           9.9824   -1.8613    0.0000 H       1  UNL1        0.0266
     58 H          10.7621   -2.0270    0.0000 H       1  UNL1        0.0266
     59 H          18.4138   -0.2630    0.0000 H       1  UNL1        0.0265
     60 H          17.6341   -0.4287    0.0000 H       1  UNL1        0.0265
     61 H          10.2164   -0.4287    0.0000 H       1  UNL1        0.0265
     62 H           9.4368   -0.2630    0.0000 H       1  UNL1        0.0265
     63 H          24.3207    0.8522    0.0000 H       1  UNL1        0.0734
     64 H          18.7827   -1.6669    0.0000 H       1  UNL1        0.0266
     65 H          19.5623   -1.5012    0.0000 H       1  UNL1        0.0266
     66 H          16.4829   -3.0094    0.0000 H       1  UNL1        0.2099
     67 H          25.6861   -0.1676    0.0000 H       1  UNL1        0.0309
     68 H          26.4441    0.1699    0.0000 H       1  UNL1        0.0309
     69 H          11.3676   -3.0094    0.0000 H       1  UNL1        0.2099
     70 H          26.5998    1.8670    0.0000 H       1  UNL1        0.0419
     71 H          23.8653   -0.5865    0.0000 H       1  UNL1        0.0301
     72 H          24.6449   -0.4208    0.0000 H       1  UNL1        0.0301
     73 H          20.1080    0.0971    0.0000 H       1  UNL1        0.0290
     74 H          19.3283   -0.0686    0.0000 H       1  UNL1        0.0290
     75 H          21.3576   -0.9509    0.0000 H       1  UNL1        0.0593
     76 H          23.4964    0.8173    0.0000 H       1  UNL1        0.0266
     77 H          22.7167    0.6516    0.0000 H       1  UNL1        0.0266
     78 H           8.2882   -1.5012    0.0000 H       1  UNL1        0.0265
     79 H           9.0679   -1.6669    0.0000 H       1  UNL1        0.0265
     80 H          21.8022    0.4572    0.0000 H       1  UNL1        0.0290
     81 H          21.0225    0.2915    0.0000 H       1  UNL1        0.0290
     82 H          22.1711   -0.9467    0.0000 H       1  UNL1        0.0266
     83 H          22.9507   -0.7809    0.0000 H       1  UNL1        0.0266
     84 H           8.5222   -0.0686    0.0000 H       1  UNL1        0.0265
     85 H           7.7426    0.0971    0.0000 H       1  UNL1        0.0265
     86 H          27.9294    1.6644    0.0000 H       1  UNL1        0.0349
     87 H          27.2013    1.9886    0.0000 H       1  UNL1        0.0349
     88 H           6.5940   -1.1410    0.0000 H       1  UNL1        0.0265
     89 H           7.3737   -1.3068    0.0000 H       1  UNL1        0.0265
     90 H           6.8280    0.2915    0.0000 H       1  UNL1        0.0265
     91 H           6.0484    0.4572    0.0000 H       1  UNL1        0.0265
     92 H          21.5655   -1.9291    0.0000 H       1  UNL1        0.2098
     93 H           4.8998   -0.7809    0.0000 H       1  UNL1        0.0265
     94 H           5.6795   -0.9467    0.0000 H       1  UNL1        0.0265
     95 H           5.1338    0.6516    0.0000 H       1  UNL1        0.0265
     96 H           4.3542    0.8173    0.0000 H       1  UNL1        0.0265
     97 H          29.0193    0.0716    0.0000 H       1  UNL1        0.0306
     98 H          29.5711    0.7530    0.0000 H       1  UNL1        0.0306
     99 H          28.8897    1.3048    0.0000 H       1  UNL1        0.0306
    100 H           3.2056   -0.4208    0.0000 H       1  UNL1        0.0265
    101 H           3.9853   -0.5865    0.0000 H       1  UNL1        0.0265
    102 H           3.4396    1.0117    0.0000 H       1  UNL1        0.0263
    103 H           2.6600    1.1774    0.0000 H       1  UNL1        0.0263
    104 H           1.8084    0.9107    0.0000 H       1  UNL1        0.0230
    105 H           1.4103    0.1294    0.0000 H       1  UNL1        0.0230
    106 H           2.1916   -0.2687    0.0000 H       1  UNL1        0.0230
@<TRIPOS>BOND
     1     1     8    1
     2     1     9    1
     3    12     2    1
     4     2    66    1
     5    13     3    1
     6     3    69    1
     7     4    20    1
     8     4    32    1
     9     5    26    1
    10     5    92    1
    11     6    32    2
    12     7    36    2
    13     8    10    1
    14     8    12    1
    15     8    43    1
    16     9    11    1
    17     9    13    1
    18     9    44    1
    19    10    11    1
    20    10    45    1
    21    10    46    1
    22    11    47    1
    23    11    48    1
    24    12    14    1
    25    12    49    1
    26    13    15    1
    27    13    50    1
    28    14    16    1
    29    14    51    1
    30    14    52    1
    31    15    17    1
    32    15    53    1
    33    15    54    1
    34    16    18    1
    35    16    55    1
    36    16    56    1
    37    17    19    1
    38    17    57    1
    39    17    58    1
    40    18    21    1
    41    18    59    1
    42    18    60    1
    43    19    28    1
    44    19    61    1
    45    19    62    1
    46    20    22    1
    47    20    24    1
    48    20    63    1
    49    21    25    1
    50    21    64    1
    51    21    65    1
    52    22    23    1
    53    22    67    1
    54    22    68    1
    55    23    32    1
    56    23    33    1
    57    23    70    1
    58    24    27    1
    59    24    71    1
    60    24    72    1
    61    25    26    1
    62    25    73    1
    63    25    74    1
    64    26    29    1
    65    26    75    1
    66    27    30    1
    67    27    76    1
    68    27    77    1
    69    28    31    1
    70    28    78    1
    71    28    79    1
    72    29    30    1
    73    29    80    1
    74    29    81    1
    75    30    82    1
    76    30    83    1
    77    31    34    1
    78    31    84    1
    79    31    85    1
    80    33    36    1
    81    33    86    1
    82    33    87    1
    83    34    35    1
    84    34    88    1
    85    34    89    1
    86    35    37    1
    87    35    90    1
    88    35    91    1
    89    36    39    1
    90    37    38    1
    91    37    93    1
    92    37    94    1
    93    38    40    1
    94    38    95    1
    95    38    96    1
    96    39    97    1
    97    39    98    1
    98    39    99    1
    99    40    41    1
   100    40   100    1
   101    40   101    1
   102    41    42    1
   103    41   102    1
   104    41   103    1
   105    42   104    1
   106    42   105    1
   107    42   106    1
