@<TRIPOS>MOLECULE
IMPHY015805
 77 79 0 0 0
SMALL
GASTEIGER

@<TRIPOS>ATOM
      1 O           5.8301    3.6719    0.0000 O.3     1  UNL1       -0.3886
      2 O          10.7243    3.3334    0.0000 O.3     1  UNL1       -0.3888
      3 O           6.3301   -2.1941    0.0000 O.3     1  UNL1       -0.5055
      4 O           4.5981    0.8059    0.0000 O.3     1  UNL1       -0.5055
      5 O           2.8660   -2.1941    0.0000 O.3     1  UNL1       -0.5051
      6 O           2.0000   -0.6941    0.0000 O.2     1  UNL1       -0.2955
      7 O           3.7320   -3.6941    0.0000 O.2     1  UNL1       -0.2955
      8 C           7.1962    1.3059    0.0000 C.3     1  UNL1       -0.0232
      9 C           7.1962    2.3059    0.0000 C.3     1  UNL1       -0.0064
     10 C           6.3301    0.8059    0.0000 C.3     1  UNL1       -0.0281
     11 C           6.3301    2.8059    0.0000 C.3     1  UNL1        0.0666
     12 C           8.0901    0.7712    0.0000 C.3     1  UNL1       -0.0467
     13 C           8.0901    2.8405    0.0000 C.3     1  UNL1       -0.0417
     14 C           8.9962    2.3267    0.0000 C.3     1  UNL1       -0.0123
     15 C           5.4641    1.3059    0.0000 C.3     1  UNL1       -0.0466
     16 C           5.4641    2.3059    0.0000 C.3     1  UNL1       -0.0237
     17 C           8.9962    1.2851    0.0000 C.3     1  UNL1       -0.0471
     18 C           6.3301   -0.1941    0.0000 C.3     1  UNL1       -0.0053
     19 C           7.1962    0.3059    0.0000 C.3     1  UNL1       -0.0589
     20 C           9.8602    2.8300    0.0000 C.3     1  UNL1        0.0633
     21 C           6.8301    3.6719    0.0000 C.3     1  UNL1       -0.0358
     22 C           7.1962   -0.6941    0.0000 C.3     1  UNL1       -0.0434
     23 C           5.4641   -0.6941    0.0000 C.ar    1  UNL1        0.0403
     24 C          10.3636    1.9659    0.0000 C.3     1  UNL1       -0.0361
     25 C           9.3569    3.6941    0.0000 C.3     1  UNL1       -0.0361
     26 C           8.1810   -0.8678    0.0000 C.3     1  UNL1       -0.0462
     27 C           5.4641   -1.6941    0.0000 C.ar    1  UNL1        0.1375
     28 C           4.5981   -0.1941    0.0000 C.ar    1  UNL1        0.1375
     29 C           8.5230   -1.8075    0.0000 C.3     1  UNL1       -0.0626
     30 C           8.8238   -0.1017    0.0000 C.3     1  UNL1       -0.0626
     31 C           4.5981   -2.1941    0.0000 C.ar    1  UNL1        0.0980
     32 C           3.7320   -0.6941    0.0000 C.ar    1  UNL1        0.0980
     33 C           3.7320   -1.6941    0.0000 C.ar    1  UNL1        0.1443
     34 C           2.8660   -0.1941    0.0000 C.2     1  UNL1        0.1573
     35 C           4.5981   -3.1941    0.0000 C.2     1  UNL1        0.1573
     36 H           7.1896    3.1558    0.0000 H       1  UNL1        0.0334
     37 H           5.5940    0.3809    0.0000 H       1  UNL1        0.0312
     38 H           7.6855    0.3014    0.0000 H       1  UNL1        0.0271
     39 H           8.4837    0.2922    0.0000 H       1  UNL1        0.0271
     40 H           8.4837    3.3196    0.0000 H       1  UNL1        0.0273
     41 H           7.6855    3.3103    0.0000 H       1  UNL1        0.0273
     42 H           8.9913    3.1767    0.0000 H       1  UNL1        0.0328
     43 H           4.8535    1.4135    0.0000 H       1  UNL1        0.0269
     44 H           5.2520    0.7233    0.0000 H       1  UNL1        0.0269
     45 H           5.2520    2.8885    0.0000 H       1  UNL1        0.0293
     46 H           4.8535    2.1982    0.0000 H       1  UNL1        0.0293
     47 H           9.2052    0.7014    0.0000 H       1  UNL1        0.0269
     48 H           9.6070    1.3912    0.0000 H       1  UNL1        0.0269
     49 H           6.8671    0.1159    0.0000 H       1  UNL1        0.0354
     50 H           6.5762    0.3059    0.0000 H       1  UNL1        0.0235
     51 H           7.1962   -0.3141    0.0000 H       1  UNL1        0.0235
     52 H           7.8162    0.3059    0.0000 H       1  UNL1        0.0235
     53 H           7.3671    3.3619    0.0000 H       1  UNL1        0.0257
     54 H           7.1401    4.2088    0.0000 H       1  UNL1        0.0257
     55 H           6.2932    3.9819    0.0000 H       1  UNL1        0.0257
     56 H           6.6988   -1.0644    0.0000 H       1  UNL1        0.0274
     57 H           7.4082   -0.1115    0.0000 H       1  UNL1        0.0274
     58 H           5.2101    3.6719    0.0000 H       1  UNL1        0.2102
     59 H           9.8278    1.6539    0.0000 H       1  UNL1        0.0257
     60 H          10.6757    1.4302    0.0000 H       1  UNL1        0.0257
     61 H          10.8993    2.2780    0.0000 H       1  UNL1        0.0257
     62 H           9.8927    4.0062    0.0000 H       1  UNL1        0.0257
     63 H           9.0448    4.2299    0.0000 H       1  UNL1        0.0257
     64 H           8.8212    3.3820    0.0000 H       1  UNL1        0.0257
     65 H           7.7824   -1.3427    0.0000 H       1  UNL1        0.0296
     66 H          11.2625    3.0254    0.0000 H       1  UNL1        0.2101
     67 H           7.9404   -2.0195    0.0000 H       1  UNL1        0.0232
     68 H           8.7350   -2.3901    0.0000 H       1  UNL1        0.0232
     69 H           9.1056   -1.5954    0.0000 H       1  UNL1        0.0232
     70 H           9.2987   -0.5003    0.0000 H       1  UNL1        0.0232
     71 H           9.2223    0.3732    0.0000 H       1  UNL1        0.0232
     72 H           8.3488    0.2968    0.0000 H       1  UNL1        0.0232
     73 H           6.3301   -2.8141    0.0000 H       1  UNL1        0.2922
     74 H           4.0611    1.1159    0.0000 H       1  UNL1        0.2922
     75 H           2.8660    0.4259    0.0000 H       1  UNL1        0.1084
     76 H           5.1350   -3.5041    0.0000 H       1  UNL1        0.1084
     77 H           2.8660   -2.8141    0.0000 H       1  UNL1        0.2922
@<TRIPOS>BOND
     1    11     1    1
     2     1    58    1
     3     2    20    1
     4     2    66    1
     5     3    27    1
     6     3    73    1
     7     4    28    1
     8     4    74    1
     9     5    33    1
    10     5    77    1
    11     6    34    2
    12     7    35    2
    13     8     9    1
    14     8    10    1
    15     8    12    1
    16     8    19    1
    17     9    11    1
    18     9    13    1
    19     9    36    1
    20    10    15    1
    21    10    18    1
    22    10    37    1
    23    11    16    1
    24    11    21    1
    25    12    17    1
    26    12    38    1
    27    12    39    1
    28    13    14    1
    29    13    40    1
    30    13    41    1
    31    14    17    1
    32    14    20    1
    33    14    42    1
    34    15    16    1
    35    15    43    1
    36    15    44    1
    37    16    45    1
    38    16    46    1
    39    17    47    1
    40    17    48    1
    41    18    22    1
    42    18    23    1
    43    18    49    1
    44    19    50    1
    45    19    51    1
    46    19    52    1
    47    20    24    1
    48    20    25    1
    49    21    53    1
    50    21    54    1
    51    21    55    1
    52    22    26    1
    53    22    56    1
    54    22    57    1
    55    23    27   ar
    56    23    28   ar
    57    24    59    1
    58    24    60    1
    59    24    61    1
    60    25    62    1
    61    25    63    1
    62    25    64    1
    63    26    29    1
    64    26    30    1
    65    26    65    1
    66    27    31   ar
    67    28    32   ar
    68    29    67    1
    69    29    68    1
    70    29    69    1
    71    30    70    1
    72    30    71    1
    73    30    72    1
    74    31    33   ar
    75    31    35    1
    76    32    33   ar
    77    32    34    1
    78    34    75    1
    79    35    76    1
