@<TRIPOS>MOLECULE
IMPHY005149
 58 62 0 0 0
SMALL
GASTEIGER

@<TRIPOS>ATOM
      1 O           4.9955    0.8737    0.0000 O.3     1  UNL1       -0.3358
      2 O           7.0316    2.5193    0.0000 O.3     1  UNL1       -0.3873
      3 O           4.8814   -0.7868    0.0000 O.3     1  UNL1       -0.4253
      4 O           7.8175   -1.0530    0.0000 O.3     1  UNL1       -0.3846
      5 O           7.1614   -1.4184    0.0000 O.2     1  UNL1       -0.2966
      6 O           3.4740    0.2228    0.0000 O.2     1  UNL1       -0.2452
      7 C           8.3033    1.0450    0.0000 C.3     1  UNL1        0.0414
      8 C           7.4943    1.6328    0.0000 C.3     1  UNL1        0.0834
      9 C           6.5363    1.2239    0.0000 C.3     1  UNL1        0.0390
     10 C           6.4194    0.1888    0.0000 C.3     1  UNL1        0.1039
     11 C           5.4643    0.0257    0.0000 C.3     1  UNL1        0.2553
     12 C           7.1780   -0.2842    0.0000 C.3     1  UNL1        0.1302
     13 C           9.1123    1.6328    0.0000 C.3     1  UNL1       -0.0325
     14 C           8.2104    0.0075    0.0000 C.3     1  UNL1        0.0177
     15 C           7.8033    2.5839    0.0000 C.3     1  UNL1       -0.0225
     16 C           5.6416    1.5958    0.0000 C.3     1  UNL1        0.0612
     17 C           7.2621   -0.4235    0.0000 C.2     1  UNL1        0.1469
     18 C           8.8033    2.5839    0.0000 C.3     1  UNL1       -0.0471
     19 C           6.3019    2.1960    0.0000 C.3     1  UNL1       -0.0537
     20 C           6.3072   -0.8049    0.0000 C.3     1  UNL1       -0.0459
     21 C          10.0634    1.3238    0.0000 C.3     1  UNL1       -0.0617
     22 C           3.8862   -0.6883    0.0000 C.2     1  UNL1        0.3376
     23 C           3.3033   -1.5008    0.0000 C.2     1  UNL1        0.0357
     24 C           2.3033   -1.5068    0.0000 C.3     1  UNL1       -0.0207
     25 C           3.6180   -2.4500    0.0000 C.2     1  UNL1       -0.0627
     26 C           2.0000   -2.4596    0.0000 C.3     1  UNL1       -0.0451
     27 C           2.8125   -3.0426    0.0000 C.3     1  UNL1       -0.0309
     28 C           4.5709   -2.7533    0.0000 C.3     1  UNL1       -0.0430
     29 H           6.8657   -0.8198    0.0000 H       1  UNL1        0.0666
     30 H           9.5507    2.0712    0.0000 H       1  UNL1        0.0305
     31 H           8.3666   -0.5925    0.0000 H       1  UNL1        0.0349
     32 H           8.8283    0.0587    0.0000 H       1  UNL1        0.0349
     33 H           7.8681    3.2005    0.0000 H       1  UNL1        0.0293
     34 H           7.1968    2.7128    0.0000 H       1  UNL1        0.0293
     35 H           5.9420    2.1381    0.0000 H       1  UNL1        0.0568
     36 H           5.1362    1.9550    0.0000 H       1  UNL1        0.0568
     37 H           9.4098    2.7128    0.0000 H       1  UNL1        0.0269
     38 H           8.7385    3.2005    0.0000 H       1  UNL1        0.0269
     39 H           6.9046    2.3413    0.0000 H       1  UNL1        0.0237
     40 H           6.1565    2.7987    0.0000 H       1  UNL1        0.0237
     41 H           5.6991    2.0506    0.0000 H       1  UNL1        0.0237
     42 H           5.6912   -0.7353    0.0000 H       1  UNL1        0.0241
     43 H           6.2377   -1.4210    0.0000 H       1  UNL1        0.0241
     44 H           6.9233   -0.8744    0.0000 H       1  UNL1        0.0241
     45 H           7.3642    3.0426    0.0000 H       1  UNL1        0.2102
     46 H           9.8718    0.7341    0.0000 H       1  UNL1        0.0233
     47 H          10.6530    1.1322    0.0000 H       1  UNL1        0.0233
     48 H          10.2550    1.9134    0.0000 H       1  UNL1        0.0233
     49 H           8.4285   -0.9480    0.0000 H       1  UNL1        0.2101
     50 H           2.3644   -0.8898    0.0000 H       1  UNL1        0.0315
     51 H           1.6961   -1.3815    0.0000 H       1  UNL1        0.0315
     52 H           1.4321   -2.2109    0.0000 H       1  UNL1        0.0271
     53 H           1.6932   -2.9984    0.0000 H       1  UNL1        0.0271
     54 H           2.4004   -3.5058    0.0000 H       1  UNL1        0.0310
     55 H           3.2301   -3.5008    0.0000 H       1  UNL1        0.0310
     56 H           4.3828   -3.3441    0.0000 H       1  UNL1        0.0275
     57 H           5.1617   -2.9413    0.0000 H       1  UNL1        0.0275
     58 H           4.7589   -2.1625    0.0000 H       1  UNL1        0.0275
@<TRIPOS>BOND
     1     1    11    1
     2     1    16    1
     3     8     2    1
     4     2    45    1
     5    11     3    1
     6     3    22    1
     7    12     4    1
     8     4    49    1
     9     5    17    2
    10     6    22    2
    11     7     8    1
    12     7    12    1
    13     7    13    1
    14     7    14    1
    15     8     9    1
    16     8    15    1
    17     9    10    1
    18     9    16    1
    19     9    19    1
    20    10    11    1
    21    10    17    1
    22    10    20    1
    23    11    12    1
    24    12    29    1
    25    13    18    1
    26    13    21    1
    27    13    30    1
    28    14    17    1
    29    14    31    1
    30    14    32    1
    31    15    18    1
    32    15    33    1
    33    15    34    1
    34    16    35    1
    35    16    36    1
    36    18    37    1
    37    18    38    1
    38    19    39    1
    39    19    40    1
    40    19    41    1
    41    20    42    1
    42    20    43    1
    43    20    44    1
    44    21    46    1
    45    21    47    1
    46    21    48    1
    47    22    23    1
    48    23    24    1
    49    23    25    2
    50    24    26    1
    51    24    50    1
    52    24    51    1
    53    25    27    1
    54    25    28    1
    55    26    27    1
    56    26    52    1
    57    26    53    1
    58    27    54    1
    59    27    55    1
    60    28    56    1
    61    28    57    1
    62    28    58    1
