@<TRIPOS>MOLECULE
IMPHY011161
 61 60 0 0 0
SMALL
GASTEIGER

@<TRIPOS>ATOM
      1 O           8.0622    3.0000    0.0000 O.2     1  UNL1       -0.2756
      2 N           7.1962    1.5000    0.0000 N.am    1  UNL1       -0.3015
      3 N           2.8660    2.0000    0.0000 N.3     1  UNL1       -0.3083
      4 N           5.4641   -2.5000    0.0000 N.3     1  UNL1       -0.3083
      5 C           6.3301    2.0000    0.0000 C.3     1  UNL1        0.0147
      6 C           7.1962    0.5000    0.0000 C.3     1  UNL1        0.0147
      7 C           5.4641    1.5000    0.0000 C.3     1  UNL1       -0.0360
      8 C           6.3301    0.0000    0.0000 C.3     1  UNL1       -0.0360
      9 C           4.5981    2.0000    0.0000 C.3     1  UNL1       -0.0388
     10 C           6.3301   -1.0000    0.0000 C.3     1  UNL1       -0.0388
     11 C           8.0622    2.0000    0.0000 C.2     1  UNL1        0.2156
     12 C           8.9282    1.5000    0.0000 C.3     1  UNL1        0.0242
     13 C           9.7942    2.0000    0.0000 C.3     1  UNL1       -0.0448
     14 C           3.7320    1.5000    0.0000 C.3     1  UNL1       -0.0016
     15 C           5.4641   -1.5000    0.0000 C.3     1  UNL1       -0.0016
     16 C          10.6603    1.5000    0.0000 C.3     1  UNL1       -0.0529
     17 C          11.5263    2.0000    0.0000 C.3     1  UNL1       -0.0559
     18 C           2.0000    1.5000    0.0000 C.3     1  UNL1       -0.0131
     19 C           2.8660    3.0000    0.0000 C.3     1  UNL1       -0.0131
     20 C           4.5981   -3.0000    0.0000 C.3     1  UNL1       -0.0131
     21 C           6.3301   -3.0000    0.0000 C.3     1  UNL1       -0.0131
     22 C          12.3923    1.5000    0.0000 C.3     1  UNL1       -0.0653
     23 H           7.4082   -0.0826    0.0000 H       1  UNL1        0.0464
     24 H           7.8067    0.6077    0.0000 H       1  UNL1        0.0464
     25 H           6.7287    2.4750    0.0000 H       1  UNL1        0.0464
     26 H           5.9316    2.4750    0.0000 H       1  UNL1        0.0464
     27 H           5.0656    1.0250    0.0000 H       1  UNL1        0.0281
     28 H           5.8626    1.0250    0.0000 H       1  UNL1        0.0281
     29 H           6.1181    0.5826    0.0000 H       1  UNL1        0.0281
     30 H           5.7196   -0.1077    0.0000 H       1  UNL1        0.0281
     31 H           6.5422   -1.5826    0.0000 H       1  UNL1        0.0278
     32 H           6.9407   -0.8923    0.0000 H       1  UNL1        0.0278
     33 H           4.9966    2.4750    0.0000 H       1  UNL1        0.0278
     34 H           4.1996    2.4750    0.0000 H       1  UNL1        0.0278
     35 H           8.5297    1.0250    0.0000 H       1  UNL1        0.0358
     36 H           9.3267    1.0250    0.0000 H       1  UNL1        0.0358
     37 H          10.1928    2.4750    0.0000 H       1  UNL1        0.0270
     38 H           9.3957    2.4750    0.0000 H       1  UNL1        0.0270
     39 H           3.3335    1.0250    0.0000 H       1  UNL1        0.0426
     40 H           4.1306    1.0250    0.0000 H       1  UNL1        0.0426
     41 H           5.2520   -0.9174    0.0000 H       1  UNL1        0.0426
     42 H           4.8535   -1.6077    0.0000 H       1  UNL1        0.0426
     43 H          10.2617    1.0250    0.0000 H       1  UNL1        0.0265
     44 H          11.0588    1.0250    0.0000 H       1  UNL1        0.0265
     45 H          11.9248    2.4750    0.0000 H       1  UNL1        0.0263
     46 H          11.1278    2.4750    0.0000 H       1  UNL1        0.0263
     47 H           6.0201   -3.5369    0.0000 H       1  UNL1        0.0391
     48 H           6.8671   -3.3100    0.0000 H       1  UNL1        0.0391
     49 H           6.6401   -2.4631    0.0000 H       1  UNL1        0.0391
     50 H           4.2881   -2.4631    0.0000 H       1  UNL1        0.0391
     51 H           4.0611   -3.3100    0.0000 H       1  UNL1        0.0391
     52 H           4.9081   -3.5369    0.0000 H       1  UNL1        0.0391
     53 H           3.4860    3.0000    0.0000 H       1  UNL1        0.0391
     54 H           2.8660    3.6200    0.0000 H       1  UNL1        0.0391
     55 H           2.2460    3.0000    0.0000 H       1  UNL1        0.0391
     56 H           1.6900    2.0369    0.0000 H       1  UNL1        0.0391
     57 H           1.4631    1.1900    0.0000 H       1  UNL1        0.0391
     58 H           2.3100    0.9631    0.0000 H       1  UNL1        0.0391
     59 H          12.0823    0.9631    0.0000 H       1  UNL1        0.0230
     60 H          12.9292    1.1900    0.0000 H       1  UNL1        0.0230
     61 H          12.7023    2.0369    0.0000 H       1  UNL1        0.0230
@<TRIPOS>BOND
     1     1    11    2
     2     2     5    1
     3     2     6    1
     4     2    11   am
     5     3    14    1
     6     3    18    1
     7     3    19    1
     8     4    15    1
     9     4    20    1
    10     4    21    1
    11     5     7    1
    12     5    25    1
    13     5    26    1
    14     6     8    1
    15     6    23    1
    16     6    24    1
    17     7     9    1
    18     7    27    1
    19     7    28    1
    20     8    10    1
    21     8    29    1
    22     8    30    1
    23     9    14    1
    24     9    33    1
    25     9    34    1
    26    10    15    1
    27    10    31    1
    28    10    32    1
    29    11    12    1
    30    12    13    1
    31    12    35    1
    32    12    36    1
    33    13    16    1
    34    13    37    1
    35    13    38    1
    36    14    39    1
    37    14    40    1
    38    15    41    1
    39    15    42    1
    40    16    17    1
    41    16    43    1
    42    16    44    1
    43    17    22    1
    44    17    45    1
    45    17    46    1
    46    18    56    1
    47    18    57    1
    48    18    58    1
    49    19    53    1
    50    19    54    1
    51    19    55    1
    52    20    50    1
    53    20    51    1
    54    20    52    1
    55    21    47    1
    56    21    48    1
    57    21    49    1
    58    22    59    1
    59    22    60    1
    60    22    61    1
