@<TRIPOS>MOLECULE
IMPHY017098
 45 44 0 0 0
SMALL
GASTEIGER

@<TRIPOS>ATOM
      1 O           2.8660    0.4400    0.0000 O.3     1  UNL1       -0.4649
      2 O           3.7320   -1.0600    0.0000 O.2     1  UNL1       -0.2456
      3 C          10.6603   -0.0600    0.0000 C.3     1  UNL1       -0.0531
      4 C           9.7942    0.4400    0.0000 C.3     1  UNL1       -0.0531
      5 C          11.5263    0.4400    0.0000 C.3     1  UNL1       -0.0531
      6 C           8.9282   -0.0600    0.0000 C.3     1  UNL1       -0.0530
      7 C          12.3923   -0.0600    0.0000 C.3     1  UNL1       -0.0531
      8 C           8.0622    0.4400    0.0000 C.3     1  UNL1       -0.0528
      9 C          13.2583    0.4400    0.0000 C.3     1  UNL1       -0.0533
     10 C           7.1962   -0.0600    0.0000 C.3     1  UNL1       -0.0496
     11 C          14.1244   -0.0600    0.0000 C.3     1  UNL1       -0.0559
     12 C           6.3301    0.4400    0.0000 C.3     1  UNL1       -0.0343
     13 C          14.9904    0.4400    0.0000 C.3     1  UNL1       -0.0653
     14 C           5.4641   -0.0600    0.0000 C.2     1  UNL1       -0.0773
     15 C           4.5981    0.4400    0.0000 C.2     1  UNL1        0.0186
     16 C           3.7320   -0.0600    0.0000 C.2     1  UNL1        0.3314
     17 C           2.0000   -0.0600    0.0000 C.3     1  UNL1        0.0820
     18 H          10.2617   -0.5349    0.0000 H       1  UNL1        0.0265
     19 H          11.0588   -0.5349    0.0000 H       1  UNL1        0.0265
     20 H          10.1928    0.9149    0.0000 H       1  UNL1        0.0265
     21 H           9.3957    0.9149    0.0000 H       1  UNL1        0.0265
     22 H          11.9248    0.9149    0.0000 H       1  UNL1        0.0265
     23 H          11.1278    0.9149    0.0000 H       1  UNL1        0.0265
     24 H           8.5297   -0.5349    0.0000 H       1  UNL1        0.0265
     25 H           9.3267   -0.5349    0.0000 H       1  UNL1        0.0265
     26 H          11.9938   -0.5349    0.0000 H       1  UNL1        0.0265
     27 H          12.7908   -0.5349    0.0000 H       1  UNL1        0.0265
     28 H           8.4607    0.9149    0.0000 H       1  UNL1        0.0265
     29 H           7.6636    0.9149    0.0000 H       1  UNL1        0.0265
     30 H          13.6569    0.9149    0.0000 H       1  UNL1        0.0265
     31 H          12.8598    0.9149    0.0000 H       1  UNL1        0.0265
     32 H           6.7976   -0.5349    0.0000 H       1  UNL1        0.0268
     33 H           7.5947   -0.5349    0.0000 H       1  UNL1        0.0268
     34 H          13.7258   -0.5349    0.0000 H       1  UNL1        0.0263
     35 H          14.5229   -0.5349    0.0000 H       1  UNL1        0.0263
     36 H           6.7287    0.9149    0.0000 H       1  UNL1        0.0307
     37 H           5.9316    0.9149    0.0000 H       1  UNL1        0.0307
     38 H          15.3004   -0.0969    0.0000 H       1  UNL1        0.0230
     39 H          15.5273    0.7500    0.0000 H       1  UNL1        0.0230
     40 H          14.6804    0.9769    0.0000 H       1  UNL1        0.0230
     41 H           5.4641   -0.6800    0.0000 H       1  UNL1        0.0574
     42 H           4.5981    1.0600    0.0000 H       1  UNL1        0.0686
     43 H           1.6900    0.4769    0.0000 H       1  UNL1        0.0661
     44 H           1.4631   -0.3700    0.0000 H       1  UNL1        0.0661
     45 H           2.3100   -0.5969    0.0000 H       1  UNL1        0.0661
@<TRIPOS>BOND
     1     1    16    1
     2     1    17    1
     3     2    16    2
     4     3     4    1
     5     3     5    1
     6     3    18    1
     7     3    19    1
     8     4     6    1
     9     4    20    1
    10     4    21    1
    11     5     7    1
    12     5    22    1
    13     5    23    1
    14     6     8    1
    15     6    24    1
    16     6    25    1
    17     7     9    1
    18     7    26    1
    19     7    27    1
    20     8    10    1
    21     8    28    1
    22     8    29    1
    23     9    11    1
    24     9    30    1
    25     9    31    1
    26    10    12    1
    27    10    32    1
    28    10    33    1
    29    11    13    1
    30    11    34    1
    31    11    35    1
    32    12    14    1
    33    12    36    1
    34    12    37    1
    35    13    38    1
    36    13    39    1
    37    13    40    1
    38    14    15    2
    39    14    41    1
    40    15    16    1
    41    15    42    1
    42    17    43    1
    43    17    44    1
    44    17    45    1
