@<TRIPOS>MOLECULE
IMPHY015056
 23 23 0 0 0
SMALL
GASTEIGER

@<TRIPOS>ATOM
      1 O           4.2690    1.3450    0.0000 O.3     1  UNL1       -0.3433
      2 O           4.2690   -1.6550    0.0000 O.3     1  UNL1       -0.3864
      3 O           2.5369   -0.6550    0.0000 O.3     1  UNL1       -0.3866
      4 O           6.0010   -0.6550    0.0000 O.3     1  UNL1       -0.3841
      5 O           6.0010    1.3450    0.0000 O.3     1  UNL1       -0.3649
      6 C           4.2690   -0.6550    0.0000 C.3     1  UNL1        0.1140
      7 C           3.4030   -0.1550    0.0000 C.3     1  UNL1        0.1095
      8 C           5.1350   -0.1550    0.0000 C.3     1  UNL1        0.1339
      9 C           3.4030    0.8450    0.0000 C.3     1  UNL1        0.0873
     10 C           5.1350    0.8450    0.0000 C.3     1  UNL1        0.1853
     11 C           2.5369    1.3450    0.0000 C.3     1  UNL1       -0.0361
     12 H           3.7320   -0.9650    0.0000 H       1  UNL1        0.0648
     13 H           3.4030   -0.7750    0.0000 H       1  UNL1        0.0646
     14 H           5.1350   -0.7750    0.0000 H       1  UNL1        0.0671
     15 H           3.4030    1.4650    0.0000 H       1  UNL1        0.0621
     16 H           5.6720    0.5350    0.0000 H       1  UNL1        0.0935
     17 H           2.8469    1.8819    0.0000 H       1  UNL1        0.0255
     18 H           2.0000    1.6550    0.0000 H       1  UNL1        0.0255
     19 H           2.2269    0.8081    0.0000 H       1  UNL1        0.0255
     20 H           3.7320   -1.9650    0.0000 H       1  UNL1        0.2100
     21 H           2.0000   -0.3450    0.0000 H       1  UNL1        0.2100
     22 H           6.5380   -0.3450    0.0000 H       1  UNL1        0.2101
     23 H           6.0010    1.9650    0.0000 H       1  UNL1        0.2126
@<TRIPOS>BOND
     1     1     9    1
     2     1    10    1
     3     6     2    1
     4     2    20    1
     5     7     3    1
     6     3    21    1
     7     8     4    1
     8     4    22    1
     9     5    10    1
    10     5    23    1
    11     6     7    1
    12     6     8    1
    13     6    12    1
    14     7     9    1
    15     7    13    1
    16     8    10    1
    17     8    14    1
    18     9    11    1
    19     9    15    1
    20    10    16    1
    21    11    17    1
    22    11    18    1
    23    11    19    1
