@<TRIPOS>MOLECULE
IMPHY002666
 20 22 0 0 0
SMALL
GASTEIGER

@<TRIPOS>ATOM
      1 O           2.5836   -0.4799    0.0000 O.3     1  UNL1       -0.4489
      2 O           2.5836   -2.0894    0.0000 O.3     1  UNL1       -0.4525
      3 O           4.3798    0.7569    0.0000 O.2     1  UNL1       -0.4183
      4 O           5.2740    2.2846    0.0000 O.2     1  UNL1       -0.2452
      5 C           3.5298   -0.7846    0.0000 C.ar    1  UNL1        0.2088
      6 C           4.3958   -0.2846    0.0000 C.ar    1  UNL1        0.1842
      7 C           3.5298   -1.7846    0.0000 C.ar    1  UNL1        0.1700
      8 C           5.2619   -0.7846    0.0000 C.ar    1  UNL1        0.0215
      9 C           4.3958   -2.2846    0.0000 C.ar    1  UNL1       -0.0153
     10 C           5.2619   -1.7846    0.0000 C.ar    1  UNL1       -0.0474
     11 C           2.0000   -1.2846    0.0000 C.3     1  UNL1        0.2334
     12 C           6.1719   -0.2778    0.0000 C.ar    1  UNL1       -0.0442
     13 C           6.1799    0.7638    0.0000 C.ar    1  UNL1        0.0236
     14 C           5.2778    1.2846    0.0000 C.ar    1  UNL1        0.3373
     15 H           4.3958   -2.9046    0.0000 H       1  UNL1        0.0655
     16 H           5.7988   -2.0946    0.0000 H       1  UNL1        0.0626
     17 H           1.5391   -0.8699    0.0000 H       1  UNL1        0.1166
     18 H           1.5391   -1.6994    0.0000 H       1  UNL1        0.1166
     19 H           6.7052   -0.5940    0.0000 H       1  UNL1        0.0627
     20 H           6.7180    1.0718    0.0000 H       1  UNL1        0.0689
@<TRIPOS>BOND
     1     1     5    1
     2     1    11    1
     3     2     7    1
     4     2    11    1
     5     3     6   ar
     6     3    14   ar
     7     4    14    2
     8     5     6   ar
     9     5     7   ar
    10     6     8   ar
    11     7     9   ar
    12     8    10   ar
    13     8    12   ar
    14     9    10   ar
    15     9    15    1
    16    10    16    1
    17    11    17    1
    18    11    18    1
    19    12    13   ar
    20    12    19    1
    21    13    14   ar
    22    13    20    1
