@<TRIPOS>MOLECULE
IMPHY017223
 19 19 0 0 0
SMALL
GASTEIGER

@<TRIPOS>ATOM
      1 O           4.5981    0.5950    0.0000 O.2     1  UNL1       -0.2506
      2 O           2.0000    2.0950    0.0000 O.2     1  UNL1       -0.1252
      3 N           2.8660    0.5950    0.0000 N.am    1  UNL1       -0.1089
      4 N           2.0000    1.0950    0.0000 N.2     1  UNL1        0.0576
      5 N           3.7320    2.0950    0.0000 N.am    1  UNL1       -0.3115
      6 C           2.8660   -0.4050    0.0000 C.ar    1  UNL1        0.0646
      7 C           2.0000   -0.9050    0.0000 C.ar    1  UNL1       -0.0382
      8 C           3.7320   -0.9050    0.0000 C.ar    1  UNL1       -0.0382
      9 C           2.0000   -1.9050    0.0000 C.ar    1  UNL1       -0.0599
     10 C           3.7320   -1.9050    0.0000 C.ar    1  UNL1       -0.0599
     11 C           2.8660   -2.4050    0.0000 C.ar    1  UNL1       -0.0616
     12 C           3.7320    1.0950    0.0000 C.2     1  UNL1        0.3262
     13 H           1.4631   -0.5950    0.0000 H       1  UNL1        0.0637
     14 H           4.2690   -0.5950    0.0000 H       1  UNL1        0.0637
     15 H           1.4631   -2.2150    0.0000 H       1  UNL1        0.0618
     16 H           4.2690   -2.2150    0.0000 H       1  UNL1        0.0618
     17 H           2.8660   -3.0250    0.0000 H       1  UNL1        0.0618
     18 H           4.2690    2.4050    0.0000 H       1  UNL1        0.1465
     19 H           3.1951    2.4050    0.0000 H       1  UNL1        0.1465
@<TRIPOS>BOND
     1     1    12    2
     2     2     4    2
     3     3     4    1
     4     3     6    1
     5     3    12   am
     6     5    12   am
     7     5    18    1
     8     5    19    1
     9     6     7   ar
    10     6     8   ar
    11     7     9   ar
    12     7    13    1
    13     8    10   ar
    14     8    14    1
    15     9    11   ar
    16     9    15    1
    17    10    11   ar
    18    10    16    1
    19    11    17    1
