@<TRIPOS>MOLECULE
IMPHY000051
 29 30 0 0 0
SMALL
GASTEIGER

@<TRIPOS>ATOM
      1 O           4.3709    0.4699    0.0000 O.3     1  UNL1       -0.3746
      2 O           6.2619   -1.2864    0.0000 O.2     1  UNL1       -0.2719
      3 N           4.6783   -2.0912    0.0000 N.am    1  UNL1       -0.2825
      4 N           6.1955    1.6858    0.0000 N.3     1  UNL1       -0.3189
      5 C           4.6783   -0.4817    0.0000 C.3     1  UNL1        0.1694
      6 C           5.4883    0.1047    0.0000 C.3     1  UNL1        0.0015
      7 C           3.7320   -0.7864    0.0000 C.ar    1  UNL1        0.0140
      8 C           5.2619   -1.2864    0.0000 C.2     1  UNL1        0.2536
      9 C           3.7320   -1.7864    0.0000 C.ar    1  UNL1        0.0399
     10 C           5.3855    1.0994    0.0000 C.3     1  UNL1       -0.0010
     11 C           2.8660   -0.2864    0.0000 C.ar    1  UNL1       -0.0536
     12 C           2.8660   -2.2864    0.0000 C.ar    1  UNL1       -0.0401
     13 C           2.0000   -0.7864    0.0000 C.ar    1  UNL1       -0.0613
     14 C           2.0000   -1.7864    0.0000 C.ar    1  UNL1       -0.0600
     15 C           6.0927    2.6805    0.0000 C.3     1  UNL1       -0.0158
     16 H           5.7591   -0.4530    0.0000 H       1  UNL1        0.0313
     17 H           6.0846    0.2746    0.0000 H       1  UNL1        0.0313
     18 H           5.1147    1.6571    0.0000 H       1  UNL1        0.0425
     19 H           4.7892    0.9295    0.0000 H       1  UNL1        0.0425
     20 H           4.8709   -2.6805    0.0000 H       1  UNL1        0.1549
     21 H           2.8660    0.3336    0.0000 H       1  UNL1        0.0622
     22 H           3.7647    0.5999    0.0000 H       1  UNL1        0.2113
     23 H           2.8660   -2.9064    0.0000 H       1  UNL1        0.0636
     24 H           6.7615    1.4326    0.0000 H       1  UNL1        0.1216
     25 H           1.4631   -0.4764    0.0000 H       1  UNL1        0.0618
     26 H           1.4631   -2.0964    0.0000 H       1  UNL1        0.0618
     27 H           6.7094    2.7442    0.0000 H       1  UNL1        0.0388
     28 H           6.0290    3.2972    0.0000 H       1  UNL1        0.0388
     29 H           5.4760    2.6167    0.0000 H       1  UNL1        0.0388
@<TRIPOS>BOND
     1     1     5    1
     2     1    22    1
     3     2     8    2
     4     3     8   am
     5     3     9    1
     6     3    20    1
     7     4    10    1
     8     4    15    1
     9     4    24    1
    10     5     6    1
    11     5     7    1
    12     5     8    1
    13     6    10    1
    14     6    16    1
    15     6    17    1
    16     7     9   ar
    17     7    11   ar
    18     9    12   ar
    19    10    18    1
    20    10    19    1
    21    11    13   ar
    22    11    21    1
    23    12    14   ar
    24    12    23    1
    25    13    14   ar
    26    13    25    1
    27    14    26    1
    28    15    27    1
    29    15    28    1
    30    15    29    1
