@<TRIPOS>MOLECULE
IMPHY008869
 76 80 0 0 0
SMALL
GASTEIGER

@<TRIPOS>ATOM
      1 O           2.0000   -2.5273    0.0000 O.2     1  UNL1       -0.2971
      2 O          10.9251    0.5592    0.0000 O.3     1  UNL1       -0.4802
      3 O          10.0707   -0.9474    0.0000 O.2     1  UNL1       -0.2504
      4 C           6.5271   -0.9749    0.0000 C.3     1  UNL1       -0.0194
      5 C           5.6610   -0.4749    0.0000 C.3     1  UNL1       -0.0257
      6 C           7.3931   -0.4749    0.0000 C.3     1  UNL1       -0.0051
      7 C           4.7510   -0.9818    0.0000 C.3     1  UNL1       -0.0246
      8 C           4.7430   -2.0234    0.0000 C.3     1  UNL1       -0.0261
      9 C           6.5431   -2.0164    0.0000 C.3     1  UNL1       -0.0463
     10 C           7.3931    0.5251    0.0000 C.2     1  UNL1       -0.0629
     11 C           8.2870    1.0597    0.0000 C.3     1  UNL1       -0.0031
     12 C           9.1931    0.5459    0.0000 C.3     1  UNL1        0.0741
     13 C           8.2870   -1.0096    0.0000 C.3     1  UNL1       -0.0424
     14 C           5.6451   -2.5442    0.0000 C.3     1  UNL1       -0.0485
     15 C           5.6610    0.5251    0.0000 C.3     1  UNL1       -0.0306
     16 C           9.1931   -0.4958    0.0000 C.3     1  UNL1       -0.0359
     17 C           3.8242   -0.4177    0.0000 C.3     1  UNL1       -0.0404
     18 C           7.1698   -1.7410    0.0000 C.3     1  UNL1       -0.0585
     19 C           6.5271    1.0251    0.0000 C.2     1  UNL1       -0.0836
     20 C           3.8076   -2.5731    0.0000 C.3     1  UNL1        0.0180
     21 C           7.7352   -1.4146    0.0000 C.3     1  UNL1       -0.0553
     22 C           8.2619    2.1444    0.0000 C.3     1  UNL1       -0.0403
     23 C           4.7587    0.0182    0.0000 C.3     1  UNL1       -0.0590
     24 C          10.1369    1.0811    0.0000 C.3     1  UNL1       -0.0362
     25 C           9.1931    2.7014    0.0000 C.3     1  UNL1       -0.0343
     26 C           2.8763   -0.9456    0.0000 C.3     1  UNL1        0.0066
     27 C          10.1369    2.1661    0.0000 C.3     1  UNL1       -0.0468
     28 C           2.8680   -2.0306    0.0000 C.2     1  UNL1        0.1365
     29 C          10.0629    0.0526    0.0000 C.2     1  UNL1        0.3115
     30 C           3.8114   -3.5731    0.0000 C.3     1  UNL1       -0.0554
     31 C           9.6830    3.5731    0.0000 C.3     1  UNL1       -0.0598
     32 C           8.6831    3.5615    0.0000 C.3     1  UNL1       -0.0598
     33 H           6.3972   -0.0499    0.0000 H       1  UNL1        0.0315
     34 H           4.7463   -2.8734    0.0000 H       1  UNL1        0.0313
     35 H           6.7612   -2.5968    0.0000 H       1  UNL1        0.0271
     36 H           7.1523   -1.9010    0.0000 H       1  UNL1        0.0271
     37 H           9.0165    1.4960    0.0000 H       1  UNL1        0.0357
     38 H           7.8824   -1.4794    0.0000 H       1  UNL1        0.0274
     39 H           8.6806   -1.4886    0.0000 H       1  UNL1        0.0274
     40 H           5.2478   -3.0202    0.0000 H       1  UNL1        0.0268
     41 H           6.0460   -3.0171    0.0000 H       1  UNL1        0.0268
     42 H           5.4490    1.1077    0.0000 H       1  UNL1        0.0310
     43 H           5.0504    0.4174    0.0000 H       1  UNL1        0.0310
     44 H           9.4022   -1.0794    0.0000 H       1  UNL1        0.0276
     45 H           9.8040   -0.3897    0.0000 H       1  UNL1        0.0276
     46 H           4.2324    0.0490    0.0000 H       1  UNL1        0.0275
     47 H           3.4343    0.0643    0.0000 H       1  UNL1        0.0275
     48 H           6.6949   -2.1395    0.0000 H       1  UNL1        0.0235
     49 H           7.5684   -2.2159    0.0000 H       1  UNL1        0.0235
     50 H           7.6448   -1.3424    0.0000 H       1  UNL1        0.0235
     51 H           6.5271    1.6451    0.0000 H       1  UNL1        0.0572
     52 H           3.2712   -2.8841    0.0000 H       1  UNL1        0.0377
     53 H           7.1526   -1.6267    0.0000 H       1  UNL1        0.0238
     54 H           7.9473   -1.9972    0.0000 H       1  UNL1        0.0238
     55 H           8.3178   -1.2025    0.0000 H       1  UNL1        0.0238
     56 H           8.0394    2.7231    0.0000 H       1  UNL1        0.0276
     57 H           7.6537    2.0242    0.0000 H       1  UNL1        0.0276
     58 H           5.3787    0.0134    0.0000 H       1  UNL1        0.0235
     59 H           4.7635    0.6382    0.0000 H       1  UNL1        0.0235
     60 H           4.1388    0.0230    0.0000 H       1  UNL1        0.0235
     61 H          10.3459    0.4974    0.0000 H       1  UNL1        0.0276
     62 H          10.7477    1.1872    0.0000 H       1  UNL1        0.0276
     63 H           2.6718   -0.3604    0.0000 H       1  UNL1        0.0342
     64 H           2.2647   -1.0470    0.0000 H       1  UNL1        0.0342
     65 H          10.7477    2.0600    0.0000 H       1  UNL1        0.0271
     66 H          10.3459    2.7498    0.0000 H       1  UNL1        0.0271
     67 H           3.1914   -3.5755    0.0000 H       1  UNL1        0.0236
     68 H           3.8138   -4.1931    0.0000 H       1  UNL1        0.0236
     69 H           4.4314   -3.5707    0.0000 H       1  UNL1        0.0236
     70 H          10.2235    3.2693    0.0000 H       1  UNL1        0.0235
     71 H           9.9868    4.1136    0.0000 H       1  UNL1        0.0235
     72 H           9.2164    3.8777    0.0000 H       1  UNL1        0.0235
     73 H           8.3669    4.0948    0.0000 H       1  UNL1        0.0235
     74 H           8.1498    3.2454    0.0000 H       1  UNL1        0.0235
     75 H           9.1426    3.8769    0.0000 H       1  UNL1        0.0235
     76 H          11.4644    0.2534    0.0000 H       1  UNL1        0.2951
@<TRIPOS>BOND
     1     1    28    2
     2     2    29    1
     3     2    76    1
     4     3    29    2
     5     4     5    1
     6     4     6    1
     7     4     9    1
     8     4    18    1
     9     5     7    1
    10     5    15    1
    11     5    33    1
    12     6    10    1
    13     6    13    1
    14     6    21    1
    15     7     8    1
    16     7    17    1
    17     7    23    1
    18     8    14    1
    19     8    20    1
    20     8    34    1
    21     9    14    1
    22     9    35    1
    23     9    36    1
    24    10    11    1
    25    10    19    2
    26    11    12    1
    27    11    22    1
    28    11    37    1
    29    12    16    1
    30    12    24    1
    31    12    29    1
    32    13    16    1
    33    13    38    1
    34    13    39    1
    35    14    40    1
    36    14    41    1
    37    15    19    1
    38    15    42    1
    39    15    43    1
    40    16    44    1
    41    16    45    1
    42    17    26    1
    43    17    46    1
    44    17    47    1
    45    18    48    1
    46    18    49    1
    47    18    50    1
    48    19    51    1
    49    20    28    1
    50    20    30    1
    51    20    52    1
    52    21    53    1
    53    21    54    1
    54    21    55    1
    55    22    25    1
    56    22    56    1
    57    22    57    1
    58    23    58    1
    59    23    59    1
    60    23    60    1
    61    24    27    1
    62    24    61    1
    63    24    62    1
    64    25    27    1
    65    25    31    1
    66    25    32    1
    67    26    28    1
    68    26    63    1
    69    26    64    1
    70    27    65    1
    71    27    66    1
    72    30    67    1
    73    30    68    1
    74    30    69    1
    75    31    70    1
    76    31    71    1
    77    31    75    1
    78    32    72    1
    79    32    73    1
    80    32    74    1
