@<TRIPOS>MOLECULE
IMPHY007819
 52 56 0 0 0
SMALL
GASTEIGER

@<TRIPOS>ATOM
      1 O           3.3689    0.4587    0.0000 O.3     1  UNL1       -0.3779
      2 O           6.5824   -1.6303    0.0000 O.3     1  UNL1       -0.4672
      3 O           5.6267   -1.9251    0.0000 O.2     1  UNL1       -0.2498
      4 N           5.6708    1.7815    0.0000 N.3     1  UNL1       -0.2973
      5 N           5.0349   -1.3938    0.0000 N.2     1  UNL1       -0.2517
      6 C           6.2943    0.9997    0.0000 C.3     1  UNL1        0.0343
      7 C           6.0718    0.0248    0.0000 C.3     1  UNL1        0.1246
      8 C           7.8221   -0.3961    0.0000 C.3     1  UNL1       -0.0265
      9 C           7.2848    1.3220    0.0000 C.3     1  UNL1       -0.0240
     10 C           6.8244   -0.6954    0.0000 C.3     1  UNL1       -0.0264
     11 C           8.0538    0.6195    0.0000 C.3     1  UNL1       -0.0447
     12 C           7.3751    1.3137    0.0000 C.3     1  UNL1        0.0021
     13 C           5.1708   -0.4091    0.0000 C.2     1  UNL1        0.0737
     14 C           4.2699    0.0248    0.0000 C.3     1  UNL1        0.1329
     15 C           4.6708    1.7815    0.0000 C.3     1  UNL1        0.0025
     16 C           4.0474    0.9997    0.0000 C.3     1  UNL1       -0.0015
     17 C           7.4961    2.2995    0.0000 C.3     1  UNL1       -0.0516
     18 C           5.8493   -0.9502    0.0000 C.2     1  UNL1        0.3203
     19 C           3.5848   -0.6955    0.0000 C.ar    1  UNL1        0.0148
     20 C           4.0566   -1.5705    0.0000 C.ar    1  UNL1        0.0702
     21 C           8.4482    2.6053    0.0000 C.3     1  UNL1       -0.0650
     22 C           2.5503   -0.6495    0.0000 C.ar    1  UNL1       -0.0535
     23 C           3.5267   -2.4601    0.0000 C.ar    1  UNL1       -0.0359
     24 C           2.0000   -1.5266    0.0000 C.ar    1  UNL1       -0.0613
     25 C           6.3598   -2.6053    0.0000 C.3     1  UNL1        0.0817
     26 C           2.4915   -2.4380    0.0000 C.ar    1  UNL1       -0.0597
     27 H           6.4835    1.8284    0.0000 H       1  UNL1        0.0480
     28 H           8.0371   -1.2184    0.0000 H       1  UNL1        0.0314
     29 H           6.8247    1.7376    0.0000 H       1  UNL1        0.0316
     30 H           6.3254   -1.0634    0.0000 H       1  UNL1        0.0283
     31 H           7.1015   -1.2500    0.0000 H       1  UNL1        0.0283
     32 H           8.6258    0.3801    0.0000 H       1  UNL1        0.0271
     33 H           8.3875    1.1420    0.0000 H       1  UNL1        0.0271
     34 H           7.9930    1.3640    0.0000 H       1  UNL1        0.0429
     35 H           7.4329    1.9310    0.0000 H       1  UNL1        0.0429
     36 H           4.8088    2.3860    0.0000 H       1  UNL1        0.0428
     37 H           4.1123    2.0505    0.0000 H       1  UNL1        0.0428
     38 H           3.6608    1.4844    0.0000 H       1  UNL1        0.0312
     39 H           3.4888    0.7307    0.0000 H       1  UNL1        0.0312
     40 H           7.4119    2.9137    0.0000 H       1  UNL1        0.0266
     41 H           6.8765    2.3232    0.0000 H       1  UNL1        0.0266
     42 H           8.6378    2.0149    0.0000 H       1  UNL1        0.0230
     43 H           9.0385    2.7948    0.0000 H       1  UNL1        0.0230
     44 H           8.2586    3.1956    0.0000 H       1  UNL1        0.0230
     45 H           3.3226    1.0769    0.0000 H       1  UNL1        0.2111
     46 H           2.2624   -0.1004    0.0000 H       1  UNL1        0.0622
     47 H           3.8272   -3.0024    0.0000 H       1  UNL1        0.0639
     48 H           1.3803   -1.5062    0.0000 H       1  UNL1        0.0618
     49 H           5.7554   -2.4673    0.0000 H       1  UNL1        0.0661
     50 H           6.2219   -3.2097    0.0000 H       1  UNL1        0.0661
     51 H           6.9643   -2.7432    0.0000 H       1  UNL1        0.0661
     52 H           2.1680   -2.9670    0.0000 H       1  UNL1        0.0618
@<TRIPOS>BOND
     1    14     1    1
     2     1    45    1
     3     2    18    1
     4     2    25    1
     5     3    18    2
     6     4     6    1
     7     4    12    1
     8     4    15    1
     9     5    13    2
    10     5    20    1
    11     6     7    1
    12     6     9    1
    13     6    27    1
    14     7    10    1
    15     7    13    1
    16     7    18    1
    17     8    10    1
    18     8    11    1
    19     8    12    1
    20     8    28    1
    21     9    11    1
    22     9    17    1
    23     9    29    1
    24    10    30    1
    25    10    31    1
    26    11    32    1
    27    11    33    1
    28    12    34    1
    29    12    35    1
    30    13    14    1
    31    14    16    1
    32    14    19    1
    33    15    16    1
    34    15    36    1
    35    15    37    1
    36    16    38    1
    37    16    39    1
    38    17    21    1
    39    17    40    1
    40    17    41    1
    41    19    20   ar
    42    19    22   ar
    43    20    23   ar
    44    21    42    1
    45    21    43    1
    46    21    44    1
    47    22    24   ar
    48    22    46    1
    49    23    26   ar
    50    23    47    1
    51    24    26   ar
    52    24    48    1
    53    25    49    1
    54    25    50    1
    55    25    51    1
    56    26    52    1
