@<TRIPOS>MOLECULE
IMPHY006120
 53 54 0 0 0
SMALL
GASTEIGER

@<TRIPOS>ATOM
      1 O           5.9641   -0.5210    0.0000 O.3     1  UNL1       -0.3856
      2 O           3.9641    1.2110    0.0000 O.3     1  UNL1       -0.3922
      3 O           8.0622    0.8450    0.0000 O.3     1  UNL1       -0.3946
      4 O           2.8660   -3.1550    0.0000 O.3     1  UNL1       -0.4915
      5 O           9.7942    1.8450    0.0000 O.3     1  UNL1       -0.4915
      6 O           4.5981   -4.1550    0.0000 O.3     1  UNL1       -0.5033
      7 O           9.7942    3.8450    0.0000 O.3     1  UNL1       -0.5033
      8 C           5.4641    0.3450    0.0000 C.3     1  UNL1        0.0981
      9 C           6.3301    0.8450    0.0000 C.3     1  UNL1        0.0175
     10 C           4.5981   -0.1550    0.0000 C.3     1  UNL1        0.0039
     11 C           6.3301    1.8450    0.0000 C.3     1  UNL1       -0.0199
     12 C           4.9641    1.2110    0.0000 C.3     1  UNL1        0.0736
     13 C           7.1962    0.3450    0.0000 C.3     1  UNL1        0.0500
     14 C           4.5981   -1.1550    0.0000 C.ar    1  UNL1       -0.0409
     15 C           7.1962    2.3450    0.0000 C.ar    1  UNL1       -0.0432
     16 C           3.7320   -1.6550    0.0000 C.ar    1  UNL1       -0.0130
     17 C           5.4641   -1.6550    0.0000 C.ar    1  UNL1       -0.0548
     18 C           8.0622    1.8450    0.0000 C.ar    1  UNL1       -0.0131
     19 C           7.1962    3.3450    0.0000 C.ar    1  UNL1       -0.0549
     20 C           3.7320   -2.6550    0.0000 C.ar    1  UNL1        0.1615
     21 C           8.9282    2.3450    0.0000 C.ar    1  UNL1        0.1615
     22 C           5.4641   -2.6550    0.0000 C.ar    1  UNL1       -0.0163
     23 C           8.0622    3.8450    0.0000 C.ar    1  UNL1       -0.0163
     24 C           4.5981   -3.1550    0.0000 C.ar    1  UNL1        0.1585
     25 C           8.9282    3.3450    0.0000 C.ar    1  UNL1        0.1585
     26 C           2.0000   -2.6550    0.0000 C.3     1  UNL1        0.0790
     27 C          10.6603    2.3450    0.0000 C.3     1  UNL1        0.0790
     28 H           7.0662    1.2700    0.0000 H       1  UNL1        0.0355
     29 H           4.3860    0.4276    0.0000 H       1  UNL1        0.0342
     30 H           3.9875   -0.2627    0.0000 H       1  UNL1        0.0342
     31 H           6.1181    2.4276    0.0000 H       1  UNL1        0.0317
     32 H           5.7196    1.7373    0.0000 H       1  UNL1        0.0317
     33 H           5.5467    1.4231    0.0000 H       1  UNL1        0.0586
     34 H           4.8564    1.8216    0.0000 H       1  UNL1        0.0586
     35 H           6.7976   -0.1299    0.0000 H       1  UNL1        0.0561
     36 H           7.5947   -0.1299    0.0000 H       1  UNL1        0.0561
     37 H           6.5841   -0.5210    0.0000 H       1  UNL1        0.2103
     38 H           3.1951   -1.3450    0.0000 H       1  UNL1        0.0658
     39 H           6.0010   -1.3450    0.0000 H       1  UNL1        0.0621
     40 H           8.0622    1.2250    0.0000 H       1  UNL1        0.0658
     41 H           6.6592    3.6550    0.0000 H       1  UNL1        0.0621
     42 H           3.6541    1.7480    0.0000 H       1  UNL1        0.2095
     43 H           8.5991    0.5350    0.0000 H       1  UNL1        0.2094
     44 H           6.0010   -2.9650    0.0000 H       1  UNL1        0.0655
     45 H           8.0622    4.4650    0.0000 H       1  UNL1        0.0655
     46 H           5.1350   -4.4650    0.0000 H       1  UNL1        0.2923
     47 H           9.7942    4.4650    0.0000 H       1  UNL1        0.2923
     48 H           2.3100   -2.1181    0.0000 H       1  UNL1        0.0660
     49 H           1.4631   -2.3450    0.0000 H       1  UNL1        0.0660
     50 H           1.6900   -3.1919    0.0000 H       1  UNL1        0.0660
     51 H          10.9703    1.8081    0.0000 H       1  UNL1        0.0660
     52 H          11.1972    2.6550    0.0000 H       1  UNL1        0.0660
     53 H          10.3503    2.8819    0.0000 H       1  UNL1        0.0660
@<TRIPOS>BOND
     1     1     8    1
     2     1    37    1
     3     2    12    1
     4     2    42    1
     5     3    13    1
     6     3    43    1
     7     4    20    1
     8     4    26    1
     9     5    21    1
    10     5    27    1
    11     6    24    1
    12     6    46    1
    13     7    25    1
    14     7    47    1
    15     8     9    1
    16     8    10    1
    17     8    12    1
    18     9    11    1
    19     9    13    1
    20     9    28    1
    21    10    14    1
    22    10    29    1
    23    10    30    1
    24    11    15    1
    25    11    31    1
    26    11    32    1
    27    12    33    1
    28    12    34    1
    29    13    35    1
    30    13    36    1
    31    14    16   ar
    32    14    17   ar
    33    15    18   ar
    34    15    19   ar
    35    16    20   ar
    36    16    38    1
    37    17    22   ar
    38    17    39    1
    39    18    21   ar
    40    18    40    1
    41    19    23   ar
    42    19    41    1
    43    20    24   ar
    44    21    25   ar
    45    22    24   ar
    46    22    44    1
    47    23    25   ar
    48    23    45    1
    49    26    48    1
    50    26    49    1
    51    26    50    1
    52    27    51    1
    53    27    52    1
    54    27    53    1
