@<TRIPOS>MOLECULE
IMPHY015209
 31 32 0 0 0
SMALL
GASTEIGER

@<TRIPOS>ATOM
      1 O           3.2575   -3.1716    0.0000 O.3     1  UNL1       -0.3360
      2 O           3.2575   -1.9961    0.0000 O.2     1  UNL1       -0.4575
      3 C           4.0665   -2.5838    0.0000 C.3     1  UNL1        0.2328
      4 C           4.8755   -3.1716    0.0000 C.3     1  UNL1        0.0191
      5 C           4.5665   -4.1227    0.0000 C.3     1  UNL1       -0.0230
      6 C           3.5665   -4.1227    0.0000 C.3     1  UNL1        0.0525
      7 C           4.8755   -1.9961    0.0000 C.2     1  UNL1       -0.0098
      8 C           3.5665   -1.0450    0.0000 C.2     1  UNL1        0.1244
      9 C           4.5665   -1.0450    0.0000 C.2     1  UNL1       -0.0176
     10 C           2.9787   -0.2360    0.0000 C.2     1  UNL1       -0.0198
     11 C           3.3854    0.6776    0.0000 C.2     1  UNL1       -0.0583
     12 C           2.7976    1.4866    0.0000 C.2     1  UNL1       -0.0619
     13 C           3.2044    2.4001    0.0000 C.2     1  UNL1       -0.0659
     14 C           2.6166    3.2091    0.0000 C.2     1  UNL1       -0.0871
     15 C           3.0233    4.1227    0.0000 C.3     1  UNL1       -0.0465
     16 H           5.4419   -3.4238    0.0000 H       1  UNL1        0.0333
     17 H           5.1855   -2.6347    0.0000 H       1  UNL1        0.0333
     18 H           4.5017   -4.7393    0.0000 H       1  UNL1        0.0289
     19 H           5.1729   -4.2516    0.0000 H       1  UNL1        0.0289
     20 H           2.9600   -4.2516    0.0000 H       1  UNL1        0.0561
     21 H           3.6313   -4.7393    0.0000 H       1  UNL1        0.0561
     22 H           5.4652   -2.1876    0.0000 H       1  UNL1        0.0638
     23 H           4.9309   -0.5434    0.0000 H       1  UNL1        0.0653
     24 H           2.3621   -0.3008    0.0000 H       1  UNL1        0.0654
     25 H           4.0020    0.7424    0.0000 H       1  UNL1        0.0619
     26 H           2.1810    1.4218    0.0000 H       1  UNL1        0.0618
     27 H           3.8210    2.4649    0.0000 H       1  UNL1        0.0614
     28 H           2.0000    3.1443    0.0000 H       1  UNL1        0.0569
     29 H           3.5897    3.8705    0.0000 H       1  UNL1        0.0272
     30 H           3.2755    4.6891    0.0000 H       1  UNL1        0.0272
     31 H           2.4569    4.3749    0.0000 H       1  UNL1        0.0272
@<TRIPOS>BOND
     1     1     3    1
     2     1     6    1
     3     2     3    1
     4     2     8    1
     5     3     4    1
     6     3     7    1
     7     4     5    1
     8     4    16    1
     9     4    17    1
    10     5     6    1
    11     5    18    1
    12     5    19    1
    13     6    20    1
    14     6    21    1
    15     7     9    2
    16     7    22    1
    17     8     9    1
    18     8    10    2
    19     9    23    1
    20    10    11    1
    21    10    24    1
    22    11    12    2
    23    11    25    1
    24    12    13    1
    25    12    26    1
    26    13    14    2
    27    13    27    1
    28    14    15    1
    29    14    28    1
    30    15    29    1
    31    15    30    1
    32    15    31    1
