@<TRIPOS>MOLECULE
IMPHY013902
 55 59 0 0 0
SMALL
GASTEIGER

@<TRIPOS>ATOM
      1 O           5.1515   -2.5674    0.0000 O.3     1  UNL1       -0.3671
      2 O           3.4094    1.8778    0.0000 O.3     1  UNL1       -0.4560
      3 O           5.6515   -2.7014    0.0000 O.3     1  UNL1       -0.4637
      4 O           3.9031   -2.7360    0.0000 O.2     1  UNL1       -0.2966
      5 O           2.1666    1.3158    0.0000 O.2     1  UNL1       -0.2502
      6 O           6.3263    3.6043    0.0000 O.2     1  UNL1       -0.4706
      7 O           4.7855   -4.2014    0.0000 O.2     1  UNL1       -0.2512
      8 C           4.7855   -1.2014    0.0000 C.3     1  UNL1        0.0977
      9 C           4.7855   -0.2014    0.0000 C.3     1  UNL1       -0.0066
     10 C           5.6515   -1.7014    0.0000 C.3     1  UNL1        0.1085
     11 C           3.8915    0.3333    0.0000 C.3     1  UNL1        0.0782
     12 C           5.6515    0.2986    0.0000 C.3     1  UNL1       -0.0480
     13 C           6.5175   -1.2014    0.0000 C.3     1  UNL1       -0.0205
     14 C           2.9855   -0.1806    0.0000 C.3     1  UNL1       -0.0210
     15 C           6.1515   -2.5674    0.0000 C.3     1  UNL1        0.0786
     16 C           3.8915   -1.7360    0.0000 C.2     1  UNL1        0.1461
     17 C           6.5175   -0.2014    0.0000 C.3     1  UNL1       -0.0500
     18 C           2.9855   -1.2222    0.0000 C.3     1  UNL1        0.0102
     19 C           4.7073    0.9117    0.0000 C.3     1  UNL1        0.0050
     20 C           4.7855   -2.2014    0.0000 C.3     1  UNL1        0.1078
     21 C           3.0894    0.9304    0.0000 C.2     1  UNL1        0.3146
     22 C           4.4093    1.8662    0.0000 C.3     1  UNL1        0.1320
     23 C           2.0000   -0.3504    0.0000 C.3     1  UNL1       -0.0610
     24 C           5.0064    2.6684    0.0000 C.ar    1  UNL1        0.0304
     25 C           5.6515   -3.7014    0.0000 C.2     1  UNL1        0.3040
     26 C           4.7084    3.6230    0.0000 C.ar    1  UNL1       -0.0172
     27 C           6.0063    2.6568    0.0000 C.ar    1  UNL1        0.0983
     28 C           5.5242    4.2014    0.0000 C.ar    1  UNL1        0.0921
     29 C           6.5175   -4.2014    0.0000 C.3     1  UNL1        0.0332
     30 H           5.5216   -0.6264    0.0000 H       1  UNL1        0.0323
     31 H           6.0500    0.7736    0.0000 H       1  UNL1        0.0269
     32 H           5.2530    0.7736    0.0000 H       1  UNL1        0.0269
     33 H           6.7296   -1.7840    0.0000 H       1  UNL1        0.0294
     34 H           7.1281   -1.0937    0.0000 H       1  UNL1        0.0294
     35 H           2.7768    0.4033    0.0000 H       1  UNL1        0.0313
     36 H           6.2592   -3.1780    0.0000 H       1  UNL1        0.0589
     37 H           6.7341   -2.3553    0.0000 H       1  UNL1        0.0589
     38 H           7.1281   -0.3090    0.0000 H       1  UNL1        0.0266
     39 H           6.7296    0.3812    0.0000 H       1  UNL1        0.0266
     40 H           2.3746   -1.1161    0.0000 H       1  UNL1        0.0345
     41 H           2.7764   -1.8059    0.0000 H       1  UNL1        0.0345
     42 H           5.0111    0.3712    0.0000 H       1  UNL1        0.0315
     43 H           5.2766    1.1573    0.0000 H       1  UNL1        0.0315
     44 H           4.1749   -2.0937    0.0000 H       1  UNL1        0.0708
     45 H           4.5734   -2.7840    0.0000 H       1  UNL1        0.0708
     46 H           5.0205    1.7622    0.0000 H       1  UNL1        0.0786
     47 H           1.8947    0.2606    0.0000 H       1  UNL1        0.0233
     48 H           1.3890   -0.4557    0.0000 H       1  UNL1        0.0233
     49 H           2.1053   -0.9614    0.0000 H       1  UNL1        0.0233
     50 H           4.1210    3.8214    0.0000 H       1  UNL1        0.0653
     51 H           6.3649    2.1511    0.0000 H       1  UNL1        0.1033
     52 H           5.5313    4.8213    0.0000 H       1  UNL1        0.1029
     53 H           6.2075   -4.7383    0.0000 H       1  UNL1        0.0342
     54 H           7.0545   -4.5114    0.0000 H       1  UNL1        0.0342
     55 H           6.8275   -3.6644    0.0000 H       1  UNL1        0.0342
@<TRIPOS>BOND
     1    10     1    1
     2     1    15    1
     3     2    21    1
     4     2    22    1
     5     3    20    1
     6     3    25    1
     7     4    16    2
     8     5    21    2
     9     6    27   ar
    10     6    28   ar
    11     7    25    2
    12     8     9    1
    13     8    10    1
    14     8    16    1
    15     8    20    1
    16     9    11    1
    17     9    12    1
    18     9    30    1
    19    10    13    1
    20    10    15    1
    21    11    14    1
    22    11    19    1
    23    11    21    1
    24    12    17    1
    25    12    31    1
    26    12    32    1
    27    13    17    1
    28    13    33    1
    29    13    34    1
    30    14    18    1
    31    14    23    1
    32    14    35    1
    33    15    36    1
    34    15    37    1
    35    16    18    1
    36    17    38    1
    37    17    39    1
    38    18    40    1
    39    18    41    1
    40    19    22    1
    41    19    42    1
    42    19    43    1
    43    20    44    1
    44    20    45    1
    45    22    24    1
    46    22    46    1
    47    23    47    1
    48    23    48    1
    49    23    49    1
    50    24    26   ar
    51    24    27   ar
    52    25    29    1
    53    26    28   ar
    54    26    50    1
    55    27    51    1
    56    28    52    1
    57    29    53    1
    58    29    54    1
    59    29    55    1
