@<TRIPOS>MOLECULE
IMPHY010184
 79 85 0 0 0
SMALL
GASTEIGER

@<TRIPOS>ATOM
      1 O           7.6032    4.0553    0.0000 O.3     1  UNL1       -0.3877
      2 O           9.3586   -1.1268    0.0000 O.3     1  UNL1       -0.3368
      3 O          11.2253   -0.0490    0.0000 O.3     1  UNL1       -0.3407
      4 O           8.1926   -0.1784    0.0000 O.2     1  UNL1       -0.3004
      5 O           2.4774    3.7346    0.0000 O.3     1  UNL1       -0.4571
      6 O          12.2210   -1.6839    0.0000 O.3     1  UNL1       -0.3409
      7 O           9.4280   -2.1765    0.0000 O.3     1  UNL1       -0.3588
      8 O           9.4049   -3.2965    0.0000 O.3     1  UNL1       -0.3836
      9 O          11.2471   -4.3791    0.0000 O.3     1  UNL1       -0.3865
     10 O           2.0000    2.0177    0.0000 O.2     1  UNL1       -0.2456
     11 C           6.7334    3.5620    0.0000 C.3     1  UNL1        0.0751
     12 C           7.6273    3.0273    0.0000 C.3     1  UNL1       -0.0079
     13 C           7.6273    2.0273    0.0000 C.3     1  UNL1       -0.0231
     14 C           5.8273    3.0482    0.0000 C.3     1  UNL1        0.0036
     15 C           8.4934    1.5273    0.0000 C.3     1  UNL1        0.0344
     16 C           9.3594    2.0273    0.0000 C.3     1  UNL1       -0.0262
     17 C           6.7334    1.4927    0.0000 C.3     1  UNL1       -0.0484
     18 C           5.8273    2.0065    0.0000 C.3     1  UNL1       -0.0442
     19 C           5.0650    3.7489    0.0000 C.3     1  UNL1       -0.0081
     20 C           8.4934    3.5273    0.0000 C.3     1  UNL1       -0.0470
     21 C           6.5233    4.5759    0.0000 C.3     1  UNL1       -0.0226
     22 C           9.3594    3.0273    0.0000 C.3     1  UNL1       -0.0489
     23 C           5.4943    4.6912    0.0000 C.3     1  UNL1       -0.0432
     24 C           8.4773    0.4858    0.0000 C.3     1  UNL1       -0.0114
     25 C          10.2694    1.5205    0.0000 C.3     1  UNL1       -0.0203
     26 C           4.9575    2.5548    0.0000 C.3     1  UNL1       -0.0564
     27 C           9.3753   -0.0419    0.0000 C.3     1  UNL1        0.0893
     28 C          10.2774    0.4789    0.0000 C.3     1  UNL1        0.0884
     29 C           7.8506    0.7613    0.0000 C.2     1  UNL1        0.1270
     30 C           4.0850    3.5502    0.0000 C.2     1  UNL1       -0.0222
     31 C          10.2940   -1.6765    0.0000 C.3     1  UNL1        0.2493
     32 C          11.2337   -1.1340    0.0000 C.3     1  UNL1        0.2171
     33 C           3.3482    4.2264    0.0000 C.3     1  UNL1        0.1147
     34 C           3.6696    2.6406    0.0000 C.2     1  UNL1        0.0252
     35 C          10.2766   -2.8065    0.0000 C.3     1  UNL1        0.1419
     36 C          11.2510   -3.3792    0.0000 C.3     1  UNL1        0.1121
     37 C           2.6761    2.7545    0.0000 C.2     1  UNL1        0.3323
     38 C          12.2297   -2.8141    0.0000 C.3     1  UNL1        0.0875
     39 C          13.0977   -3.3107    0.0000 C.3     1  UNL1       -0.0361
     40 H           8.3635    2.6023    0.0000 H       1  UNL1        0.0332
     41 H           7.6339    1.1774    0.0000 H       1  UNL1        0.0314
     42 H          10.0922    2.4580    0.0000 H       1  UNL1        0.0311
     43 H           6.3398    1.0137    0.0000 H       1  UNL1        0.0268
     44 H           7.1380    1.0229    0.0000 H       1  UNL1        0.0268
     45 H           5.2165    2.1126    0.0000 H       1  UNL1        0.0272
     46 H           5.6183    1.4228    0.0000 H       1  UNL1        0.0272
     47 H           4.6792    4.2342    0.0000 H       1  UNL1        0.0353
     48 H           8.8919    4.0023    0.0000 H       1  UNL1        0.0269
     49 H           8.0948    4.0023    0.0000 H       1  UNL1        0.0269
     50 H           7.1403    4.6372    0.0000 H       1  UNL1        0.0293
     51 H           6.5272    5.1959    0.0000 H       1  UNL1        0.0293
     52 H           9.9700    2.9197    0.0000 H       1  UNL1        0.0268
     53 H           9.5714    3.6100    0.0000 H       1  UNL1        0.0268
     54 H           5.6277    5.2967    0.0000 H       1  UNL1        0.0272
     55 H           4.9062    4.8875    0.0000 H       1  UNL1        0.0272
     56 H           7.8682    0.6013    0.0000 H       1  UNL1        0.0300
     57 H           8.2593   -0.0946    0.0000 H       1  UNL1        0.0300
     58 H          10.8811    1.4191    0.0000 H       1  UNL1        0.0294
     59 H          10.4739    2.1058    0.0000 H       1  UNL1        0.0294
     60 H           4.6516    3.0942    0.0000 H       1  UNL1        0.0236
     61 H           4.4182    2.2490    0.0000 H       1  UNL1        0.0236
     62 H           5.2633    2.0155    0.0000 H       1  UNL1        0.0236
     63 H           8.6344   -0.4584    0.0000 H       1  UNL1        0.0623
     64 H          11.0086    0.9124    0.0000 H       1  UNL1        0.0623
     65 H           7.2400    0.8690    0.0000 H       1  UNL1        0.1032
     66 H           7.6080    4.6753    0.0000 H       1  UNL1        0.2102
     67 H          11.9648   -0.7005    0.0000 H       1  UNL1        0.0967
     68 H           3.8128    4.6368    0.0000 H       1  UNL1        0.0746
     69 H           2.9885    4.7314    0.0000 H       1  UNL1        0.0746
     70 H           3.9745    2.1007    0.0000 H       1  UNL1        0.0689
     71 H          10.2706   -3.4265    0.0000 H       1  UNL1        0.0676
     72 H          11.7873   -3.6902    0.0000 H       1  UNL1        0.0647
     73 H          12.7649   -2.5010    0.0000 H       1  UNL1        0.0621
     74 H           8.8911   -1.8665    0.0000 H       1  UNL1        0.2130
     75 H           9.3977   -3.9164    0.0000 H       1  UNL1        0.2101
     76 H          12.7898   -3.8488    0.0000 H       1  UNL1        0.0255
     77 H          13.6358   -3.6186    0.0000 H       1  UNL1        0.0255
     78 H          13.4056   -2.7726    0.0000 H       1  UNL1        0.0255
     79 H          11.7829   -4.6912    0.0000 H       1  UNL1        0.2100
@<TRIPOS>BOND
     1    11     1    1
     2     1    66    1
     3     2    27    1
     4     2    31    1
     5     3    28    1
     6     3    32    1
     7     4    29    2
     8     5    33    1
     9     5    37    1
    10     6    32    1
    11     6    38    1
    12    31     7    1
    13     7    74    1
    14    35     8    1
    15     8    75    1
    16    36     9    1
    17     9    79    1
    18    10    37    2
    19    11    12    1
    20    11    14    1
    21    11    21    1
    22    12    13    1
    23    12    20    1
    24    12    40    1
    25    13    15    1
    26    13    17    1
    27    13    41    1
    28    14    18    1
    29    14    19    1
    30    14    26    1
    31    15    16    1
    32    15    24    1
    33    15    29    1
    34    16    22    1
    35    16    25    1
    36    16    42    1
    37    17    18    1
    38    17    43    1
    39    17    44    1
    40    18    45    1
    41    18    46    1
    42    19    23    1
    43    19    30    1
    44    19    47    1
    45    20    22    1
    46    20    48    1
    47    20    49    1
    48    21    23    1
    49    21    50    1
    50    21    51    1
    51    22    52    1
    52    22    53    1
    53    23    54    1
    54    23    55    1
    55    24    27    1
    56    24    56    1
    57    24    57    1
    58    25    28    1
    59    25    58    1
    60    25    59    1
    61    26    60    1
    62    26    61    1
    63    26    62    1
    64    27    28    1
    65    27    63    1
    66    28    64    1
    67    29    65    1
    68    30    33    1
    69    30    34    2
    70    31    32    1
    71    31    35    1
    72    32    67    1
    73    33    68    1
    74    33    69    1
    75    34    37    1
    76    34    70    1
    77    35    36    1
    78    35    71    1
    79    36    38    1
    80    36    72    1
    81    38    39    1
    82    38    73    1
    83    39    76    1
    84    39    77    1
    85    39    78    1
