@<TRIPOS>MOLECULE
IMPHY000903
 37 37 0 0 0
SMALL
GASTEIGER

@<TRIPOS>ATOM
      1 O           4.2690    0.4050    0.0000 O.3     1  UNL1       -0.3405
      2 O           6.0010    0.4050    0.0000 O.3     1  UNL1       -0.3280
      3 O           4.2690   -2.5950    0.0000 O.3     1  UNL1       -0.3864
      4 O           2.5369   -1.5950    0.0000 O.3     1  UNL1       -0.3865
      5 O           6.0010   -1.5950    0.0000 O.3     1  UNL1       -0.3841
      6 O           2.5369    1.4050    0.0000 O.3     1  UNL1       -0.3924
      7 N           8.0010    1.4050    0.0000 N.1     1  UNL1       -0.1935
      8 C           4.2690   -1.5950    0.0000 C.3     1  UNL1        0.1141
      9 C           3.4030   -1.0950    0.0000 C.3     1  UNL1        0.1119
     10 C           5.1350   -1.0950    0.0000 C.3     1  UNL1        0.1342
     11 C           3.4030   -0.0950    0.0000 C.3     1  UNL1        0.1130
     12 C           5.1350   -0.0950    0.0000 C.3     1  UNL1        0.1898
     13 C           2.5369    0.4050    0.0000 C.3     1  UNL1        0.0730
     14 C           6.0010    1.4050    0.0000 C.3     1  UNL1        0.1546
     15 C           6.0010    2.4050    0.0000 C.3     1  UNL1       -0.0135
     16 C           5.0010    1.4050    0.0000 C.3     1  UNL1       -0.0224
     17 C           6.8671    2.9050    0.0000 C.3     1  UNL1       -0.0617
     18 C           7.0010    1.4050    0.0000 C.1     1  UNL1        0.0973
     19 H           4.8059   -1.9050    0.0000 H       1  UNL1        0.0648
     20 H           3.4030   -1.7150    0.0000 H       1  UNL1        0.0647
     21 H           5.6720   -0.7850    0.0000 H       1  UNL1        0.0671
     22 H           3.4030    0.5250    0.0000 H       1  UNL1        0.0647
     23 H           5.1350    0.5250    0.0000 H       1  UNL1        0.0938
     24 H           1.9264    0.5127    0.0000 H       1  UNL1        0.0584
     25 H           2.3249   -0.1776    0.0000 H       1  UNL1        0.0584
     26 H           3.7320   -2.9050    0.0000 H       1  UNL1        0.2100
     27 H           2.0000   -1.2850    0.0000 H       1  UNL1        0.2100
     28 H           5.7890    2.9876    0.0000 H       1  UNL1        0.0300
     29 H           5.3905    2.2973    0.0000 H       1  UNL1        0.0300
     30 H           6.0010   -2.2150    0.0000 H       1  UNL1        0.2101
     31 H           5.0010    2.0250    0.0000 H       1  UNL1        0.0268
     32 H           4.3810    1.4050    0.0000 H       1  UNL1        0.0268
     33 H           5.0010    0.7850    0.0000 H       1  UNL1        0.0268
     34 H           7.1771    2.3681    0.0000 H       1  UNL1        0.0231
     35 H           7.4040    3.2150    0.0000 H       1  UNL1        0.0231
     36 H           6.5571    3.4419    0.0000 H       1  UNL1        0.0231
     37 H           2.0000    1.7150    0.0000 H       1  UNL1        0.2095
@<TRIPOS>BOND
     1     1    11    1
     2     1    12    1
     3    12     2    1
     4    14     2    1
     5     8     3    1
     6     3    26    1
     7     9     4    1
     8     4    27    1
     9    10     5    1
    10     5    30    1
    11     6    13    1
    12     6    37    1
    13     7    18    3
    14     8     9    1
    15     8    10    1
    16     8    19    1
    17     9    11    1
    18     9    20    1
    19    10    12    1
    20    10    21    1
    21    11    13    1
    22    11    22    1
    23    12    23    1
    24    13    24    1
    25    13    25    1
    26    14    15    1
    27    14    16    1
    28    14    18    1
    29    15    17    1
    30    15    28    1
    31    15    29    1
    32    16    31    1
    33    16    32    1
    34    16    33    1
    35    17    34    1
    36    17    35    1
    37    17    36    1
