@<TRIPOS>MOLECULE
IMPHY014961
 99 104 0 0 0
SMALL
GASTEIGER

@<TRIPOS>ATOM
      1 O           6.7449   -0.5433    0.0000 O.3     1  UNL1       -0.3450
      2 O           8.6841   -0.8515    0.0000 O.3     1  UNL1       -0.3642
      3 O           6.0010   -4.5424    0.0000 O.3     1  UNL1       -0.3484
      4 O           4.2690   -4.5424    0.0000 O.3     1  UNL1       -0.3405
      5 O           6.0010   -6.5424    0.0000 O.3     1  UNL1       -0.3841
      6 O           4.2690   -7.5424    0.0000 O.3     1  UNL1       -0.3864
      7 O           2.5369   -6.5424    0.0000 O.3     1  UNL1       -0.3865
      8 O           2.5369   -3.5424    0.0000 O.3     1  UNL1       -0.3924
      9 N           3.8788    7.3164    0.0000 N.3     1  UNL1       -0.3272
     10 C           6.9358    1.9260    0.0000 C.3     1  UNL1       -0.0233
     11 C           5.9358    1.9251    0.0000 C.3     1  UNL1       -0.0298
     12 C           5.4350    2.7907    0.0000 C.3     1  UNL1       -0.0343
     13 C           7.2413    0.9800    0.0000 C.3     1  UNL1       -0.0015
     14 C           5.9343    3.6572    0.0000 C.3     1  UNL1       -0.0323
     15 C           5.4266    4.5667    0.0000 C.3     1  UNL1       -0.0260
     16 C           6.4371    0.3957    0.0000 C.3     1  UNL1        0.0660
     17 C           5.6318    0.9786    0.0000 C.3     1  UNL1       -0.0226
     18 C           7.4350    2.7924    0.0000 C.3     1  UNL1       -0.0467
     19 C           6.9343    3.6580    0.0000 C.3     1  UNL1       -0.0489
     20 C           4.3850    4.5739    0.0000 C.3     1  UNL1       -0.0340
     21 C           8.0393    0.3971    0.0000 C.3     1  UNL1        0.0158
     22 C           4.3935    2.7738    0.0000 C.3     1  UNL1       -0.0494
     23 C           3.8650    3.6713    0.0000 C.3     1  UNL1       -0.0494
     24 C           7.9358    1.9269    0.0000 C.3     1  UNL1       -0.0590
     25 C           7.7331   -0.5424    0.0000 C.3     1  UNL1        0.1704
     26 C           5.9899    5.4941    0.0000 C.3     1  UNL1       -0.0457
     27 C           3.8345    5.5088    0.0000 C.3     1  UNL1       -0.0344
     28 C           6.4266    4.5599    0.0000 C.3     1  UNL1       -0.0590
     29 C           5.4612    6.4415    0.0000 C.3     1  UNL1       -0.0372
     30 C           4.3762    6.4489    0.0000 C.3     1  UNL1        0.0051
     31 C           8.9909    0.7045    0.0000 C.3     1  UNL1       -0.0572
     32 C           7.7331   -1.5424    0.0000 C.3     1  UNL1        0.0018
     33 C           6.8671   -2.0424    0.0000 C.3     1  UNL1       -0.0435
     34 C           6.8671   -3.0424    0.0000 C.3     1  UNL1       -0.0201
     35 C           6.0010   -3.5424    0.0000 C.3     1  UNL1        0.0533
     36 C           7.7331   -3.5424    0.0000 C.3     1  UNL1       -0.0603
     37 C           5.1350   -5.0424    0.0000 C.3     1  UNL1        0.1879
     38 C           5.1350   -6.0424    0.0000 C.3     1  UNL1        0.1341
     39 C           4.2690   -6.5424    0.0000 C.3     1  UNL1        0.1141
     40 C           3.4030   -5.0424    0.0000 C.3     1  UNL1        0.1130
     41 C           3.4030   -6.0424    0.0000 C.3     1  UNL1        0.1119
     42 C           2.5369   -4.5424    0.0000 C.3     1  UNL1        0.0730
     43 H           5.0906    1.8344    0.0000 H       1  UNL1        0.0310
     44 H           5.0163    2.0510    0.0000 H       1  UNL1        0.0306
     45 H           7.9301    1.4782    0.0000 H       1  UNL1        0.0335
     46 H           6.3599    2.9214    0.0000 H       1  UNL1        0.0309
     47 H           5.7505   -0.1054    0.0000 H       1  UNL1        0.0600
     48 H           5.0647    1.2292    0.0000 H       1  UNL1        0.0293
     49 H           5.3231    0.4410    0.0000 H       1  UNL1        0.0293
     50 H           7.9103    2.3943    0.0000 H       1  UNL1        0.0271
     51 H           7.9096    3.1914    0.0000 H       1  UNL1        0.0271
     52 H           7.5167    3.8706    0.0000 H       1  UNL1        0.0268
     53 H           6.8261    4.2685    0.0000 H       1  UNL1        0.0268
     54 H           3.5350    4.5699    0.0000 H       1  UNL1        0.0307
     55 H           8.1376    1.0093    0.0000 H       1  UNL1        0.0354
     56 H           3.8133    2.5552    0.0000 H       1  UNL1        0.0268
     57 H           4.5096    2.1647    0.0000 H       1  UNL1        0.0268
     58 H           3.3887    4.0682    0.0000 H       1  UNL1        0.0268
     59 H           3.3924    3.2700    0.0000 H       1  UNL1        0.0268
     60 H           7.9363    1.3069    0.0000 H       1  UNL1        0.0235
     61 H           8.5558    1.9274    0.0000 H       1  UNL1        0.0235
     62 H           7.9352    2.5469    0.0000 H       1  UNL1        0.0235
     63 H           6.4569    5.0863    0.0000 H       1  UNL1        0.0271
     64 H           6.4716    5.8844    0.0000 H       1  UNL1        0.0271
     65 H           3.3582    5.9057    0.0000 H       1  UNL1        0.0283
     66 H           3.3620    5.1074    0.0000 H       1  UNL1        0.0283
     67 H           6.4224    3.9399    0.0000 H       1  UNL1        0.0235
     68 H           7.0466    4.5557    0.0000 H       1  UNL1        0.0235
     69 H           6.4309    5.1799    0.0000 H       1  UNL1        0.0235
     70 H           6.0462    6.6466    0.0000 H       1  UNL1        0.0280
     71 H           5.3592    7.0531    0.0000 H       1  UNL1        0.0280
     72 H           3.7562    6.4496    0.0000 H       1  UNL1        0.0458
     73 H           9.1814    0.1145    0.0000 H       1  UNL1        0.0234
     74 H           9.5808    0.8951    0.0000 H       1  UNL1        0.0234
     75 H           8.8003    1.2945    0.0000 H       1  UNL1        0.0234
     76 H           7.9451   -2.1250    0.0000 H       1  UNL1        0.0317
     77 H           8.3437   -1.4348    0.0000 H       1  UNL1        0.0317
     78 H           8.8130   -1.4579    0.0000 H       1  UNL1        0.2128
     79 H           6.6550   -1.4598    0.0000 H       1  UNL1        0.0270
     80 H           6.2565   -2.1501    0.0000 H       1  UNL1        0.0270
     81 H           4.1904    7.8524    0.0000 H       1  UNL1        0.1185
     82 H           3.2588    7.3183    0.0000 H       1  UNL1        0.1185
     83 H           6.8671   -3.6624    0.0000 H       1  UNL1        0.0320
     84 H           5.7890   -2.9598    0.0000 H       1  UNL1        0.0563
     85 H           5.3905   -3.6501    0.0000 H       1  UNL1        0.0563
     86 H           7.4231   -4.0794    0.0000 H       1  UNL1        0.0233
     87 H           8.2700   -3.8524    0.0000 H       1  UNL1        0.0233
     88 H           8.0431   -3.0055    0.0000 H       1  UNL1        0.0233
     89 H           5.1350   -4.4224    0.0000 H       1  UNL1        0.0937
     90 H           5.1350   -6.6624    0.0000 H       1  UNL1        0.0671
     91 H           3.7320   -6.8524    0.0000 H       1  UNL1        0.0648
     92 H           3.4030   -4.4224    0.0000 H       1  UNL1        0.0647
     93 H           3.4030   -6.6624    0.0000 H       1  UNL1        0.0647
     94 H           6.5380   -6.2324    0.0000 H       1  UNL1        0.2101
     95 H           1.9264   -4.4348    0.0000 H       1  UNL1        0.0584
     96 H           2.3249   -5.1250    0.0000 H       1  UNL1        0.0584
     97 H           3.7320   -7.8524    0.0000 H       1  UNL1        0.2100
     98 H           2.0000   -6.2324    0.0000 H       1  UNL1        0.2100
     99 H           2.0000   -3.2324    0.0000 H       1  UNL1        0.2095
@<TRIPOS>BOND
     1     1    16    1
     2     1    25    1
     3    25     2    1
     4     2    78    1
     5     3    35    1
     6    37     3    1
     7     4    37    1
     8     4    40    1
     9     5    38    1
    10     5    94    1
    11     6    39    1
    12     6    97    1
    13    41     7    1
    14     7    98    1
    15     8    42    1
    16     8    99    1
    17    30     9    1
    18     9    81    1
    19     9    82    1
    20    10    11    1
    21    10    13    1
    22    10    18    1
    23    10    24    1
    24    11    12    1
    25    11    17    1
    26    11    43    1
    27    12    14    1
    28    12    22    1
    29    12    44    1
    30    13    16    1
    31    13    21    1
    32    13    45    1
    33    14    15    1
    34    14    19    1
    35    14    46    1
    36    15    20    1
    37    15    26    1
    38    15    28    1
    39    16    17    1
    40    16    47    1
    41    17    48    1
    42    17    49    1
    43    18    19    1
    44    18    50    1
    45    18    51    1
    46    19    52    1
    47    19    53    1
    48    20    23    1
    49    20    27    1
    50    20    54    1
    51    21    25    1
    52    21    31    1
    53    21    55    1
    54    22    23    1
    55    22    56    1
    56    22    57    1
    57    23    58    1
    58    23    59    1
    59    24    60    1
    60    24    61    1
    61    24    62    1
    62    25    32    1
    63    26    29    1
    64    26    63    1
    65    26    64    1
    66    27    30    1
    67    27    65    1
    68    27    66    1
    69    28    67    1
    70    28    68    1
    71    28    69    1
    72    29    30    1
    73    29    70    1
    74    29    71    1
    75    30    72    1
    76    31    73    1
    77    31    74    1
    78    31    75    1
    79    32    33    1
    80    32    76    1
    81    32    77    1
    82    33    34    1
    83    33    79    1
    84    33    80    1
    85    34    35    1
    86    34    36    1
    87    34    83    1
    88    35    84    1
    89    35    85    1
    90    36    86    1
    91    36    87    1
    92    36    88    1
    93    37    38    1
    94    37    89    1
    95    38    39    1
    96    38    90    1
    97    39    41    1
    98    39    91    1
    99    40    41    1
   100    40    42    1
   101    40    92    1
   102    41    93    1
   103    42    95    1
   104    42    96    1
