@<TRIPOS>MOLECULE
IMPHY011436
 42 42 0 0 0
SMALL
GASTEIGER

@<TRIPOS>ATOM
      1 O           4.2690   -0.1550    0.0000 O.3     1  UNL1       -0.3313
      2 O           2.5369   -2.1550    0.0000 O.3     1  UNL1       -0.3865
      3 O           4.2690   -3.1550    0.0000 O.3     1  UNL1       -0.3864
      4 O           6.0010   -0.1550    0.0000 O.2     1  UNL1       -0.4506
      5 O           6.0010   -2.1550    0.0000 O.3     1  UNL1       -0.3829
      6 O           2.5369    0.8450    0.0000 O.3     1  UNL1       -0.3924
      7 O           8.5991   -0.6550    0.0000 O.3     1  UNL1       -0.4804
      8 O           6.8671   -0.6550    0.0000 O.2     1  UNL1       -0.2506
      9 O           9.4651    2.8450    0.0000 O.3     1  UNL1       -0.4775
     10 O           8.5991    1.3450    0.0000 O.2     1  UNL1       -0.2458
     11 N           4.2690    1.8450    0.0000 N.1     1  UNL1       -0.1877
     12 C           3.4030   -1.6550    0.0000 C.3     1  UNL1        0.1120
     13 C           4.2690   -2.1550    0.0000 C.3     1  UNL1        0.1152
     14 C           3.4030   -0.6550    0.0000 C.3     1  UNL1        0.1140
     15 C           5.1350   -1.6550    0.0000 C.3     1  UNL1        0.1455
     16 C           5.1350   -0.6550    0.0000 C.3     1  UNL1        0.2316
     17 C           2.5369   -0.1550    0.0000 C.3     1  UNL1        0.0731
     18 C           6.0010    0.8450    0.0000 C.2     1  UNL1        0.2041
     19 C           6.8671    1.3450    0.0000 C.2     1  UNL1        0.0160
     20 C           7.7331    0.8450    0.0000 C.3     1  UNL1        0.0740
     21 C           5.1350    1.3450    0.0000 C.1     1  UNL1        0.1376
     22 C           6.8671    2.3450    0.0000 C.2     1  UNL1       -0.0471
     23 C           7.7331   -0.1550    0.0000 C.2     1  UNL1        0.3092
     24 C           7.7331    2.8450    0.0000 C.2     1  UNL1        0.0227
     25 C           8.5991    2.3450    0.0000 C.2     1  UNL1        0.3296
     26 H           3.4030   -2.2750    0.0000 H       1  UNL1        0.0647
     27 H           3.7320   -2.4650    0.0000 H       1  UNL1        0.0648
     28 H           3.4030   -0.0350    0.0000 H       1  UNL1        0.0647
     29 H           5.1350   -2.2750    0.0000 H       1  UNL1        0.0683
     30 H           5.1350   -0.0350    0.0000 H       1  UNL1        0.1084
     31 H           1.9264   -0.0473    0.0000 H       1  UNL1        0.0584
     32 H           2.3249   -0.7376    0.0000 H       1  UNL1        0.0584
     33 H           2.0000   -1.8450    0.0000 H       1  UNL1        0.2100
     34 H           3.7320   -3.4650    0.0000 H       1  UNL1        0.2100
     35 H           6.0010   -2.7750    0.0000 H       1  UNL1        0.2102
     36 H           2.0000    1.1550    0.0000 H       1  UNL1        0.2095
     37 H           8.3437    0.7373    0.0000 H       1  UNL1        0.0428
     38 H           7.9451    1.4276    0.0000 H       1  UNL1        0.0428
     39 H           6.3301    2.6550    0.0000 H       1  UNL1        0.0624
     40 H           7.7331    3.4650    0.0000 H       1  UNL1        0.0689
     41 H           9.1360   -0.3450    0.0000 H       1  UNL1        0.2951
     42 H           9.4651    3.4650    0.0000 H       1  UNL1        0.2954
@<TRIPOS>BOND
     1     1    14    1
     2     1    16    1
     3    12     2    1
     4     2    33    1
     5    13     3    1
     6     3    34    1
     7    16     4    1
     8     4    18    1
     9    15     5    1
    10     5    35    1
    11     6    17    1
    12     6    36    1
    13     7    23    1
    14     7    41    1
    15     8    23    2
    16     9    25    1
    17     9    42    1
    18    10    25    2
    19    11    21    3
    20    12    13    1
    21    12    14    1
    22    12    26    1
    23    13    15    1
    24    13    27    1
    25    14    17    1
    26    14    28    1
    27    15    16    1
    28    15    29    1
    29    16    30    1
    30    17    31    1
    31    17    32    1
    32    18    19    2
    33    18    21    1
    34    19    20    1
    35    19    22    1
    36    20    23    1
    37    20    37    1
    38    20    38    1
    39    22    24    2
    40    22    39    1
    41    24    25    1
    42    24    40    1
