@<TRIPOS>MOLECULE
IMPHY000468
 60 62 0 0 0
SMALL
GASTEIGER

@<TRIPOS>ATOM
      1 O           8.3834   -2.5640    0.0000 O.3     1  UNL1       -0.3612
      2 O           8.4469   -0.2773    0.0000 O.3     1  UNL1       -0.4546
      3 O           5.9888    0.9873    0.0000 O.3     1  UNL1       -0.4532
      4 O           4.2404    0.1662    0.0000 O.3     1  UNL1       -0.4527
      5 O           8.9085    1.4380    0.0000 O.2     1  UNL1       -0.2453
      6 O           2.9945   -2.1210    0.0000 O.3     1  UNL1       -0.4646
      7 O           2.6835   -0.8736    0.0000 O.2     1  UNL1       -0.2452
      8 O           4.2736    1.2284    0.0000 O.2     1  UNL1       -0.2453
      9 O           2.5252   -0.0749    0.0000 O.2     1  UNL1       -0.2511
     10 C           7.3884   -2.6683    0.0000 C.3     1  UNL1        0.0972
     11 C           7.7952   -1.7547    0.0000 C.3     1  UNL1        0.1255
     12 C           7.5873   -0.7766    0.0000 C.3     1  UNL1        0.1425
     13 C           6.8441   -0.1075    0.0000 C.3     1  UNL1        0.0708
     14 C           6.5224   -3.1683    0.0000 C.3     1  UNL1       -0.0180
     15 C           6.9817   -3.5818    0.0000 C.3     1  UNL1       -0.0332
     16 C           5.8496   -0.0029    0.0000 C.3     1  UNL1        0.1549
     17 C           5.5279   -3.0638    0.0000 C.3     1  UNL1       -0.0312
     18 C           7.2508    0.7996    0.0000 C.2     1  UNL1        0.0399
     19 C           4.9836   -0.5029    0.0000 C.3     1  UNL1        0.1716
     20 C           8.2393    0.6949    0.0000 C.2     1  UNL1        0.3355
     21 C           4.7847   -2.3946    0.0000 C.2     1  UNL1       -0.0703
     22 C           4.5768   -1.4165    0.0000 C.2     1  UNL1        0.0764
     23 C           6.7523    1.6665    0.0000 C.2     1  UNL1       -0.0882
     24 C           3.5823   -1.3120    0.0000 C.2     1  UNL1        0.3383
     25 C           5.2008    1.6030    0.0000 C.2     1  UNL1        0.3350
     26 C           3.3133    0.5409    0.0000 C.2     1  UNL1        0.3046
     27 C           5.3399    2.5933    0.0000 C.2     1  UNL1        0.0293
     28 C           3.1741    1.5311    0.0000 C.3     1  UNL1        0.0333
     29 C           4.5519    3.2089    0.0000 C.3     1  UNL1       -0.0333
     30 C           6.2671    2.9679    0.0000 C.2     1  UNL1       -0.0774
     31 C           2.0000   -2.0164    0.0000 C.3     1  UNL1        0.0820
     32 C           7.0551    2.3522    0.0000 C.3     1  UNL1       -0.0461
     33 H           8.5716   -1.4089    0.0000 H       1  UNL1        0.0662
     34 H           8.3642   -1.1213    0.0000 H       1  UNL1        0.0769
     35 H           6.4201    0.6292    0.0000 H       1  UNL1        0.0425
     36 H           6.2702   -3.7347    0.0000 H       1  UNL1        0.0297
     37 H           6.3935   -2.5618    0.0000 H       1  UNL1        0.0297
     38 H           6.4153   -3.3297    0.0000 H       1  UNL1        0.0258
     39 H           6.7295   -4.1482    0.0000 H       1  UNL1        0.0258
     40 H           7.5481   -3.8340    0.0000 H       1  UNL1        0.0258
     41 H           5.3356    0.3438    0.0000 H       1  UNL1        0.0783
     42 H           4.9910   -3.3738    0.0000 H       1  UNL1        0.0308
     43 H           5.6568   -3.6702    0.0000 H       1  UNL1        0.0308
     44 H           5.5981    0.1137    0.0000 H       1  UNL1        0.0826
     45 H           4.2478   -2.7046    0.0000 H       1  UNL1        0.0578
     46 H           7.0632    2.2029    0.0000 H       1  UNL1        0.0540
     47 H           6.1323    1.6676    0.0000 H       1  UNL1        0.0540
     48 H           3.7880    1.6174    0.0000 H       1  UNL1        0.0342
     49 H           3.0878    2.1450    0.0000 H       1  UNL1        0.0342
     50 H           2.5601    1.4448    0.0000 H       1  UNL1        0.0342
     51 H           4.9336    3.6975    0.0000 H       1  UNL1        0.0280
     52 H           4.0634    3.5906    0.0000 H       1  UNL1        0.0280
     53 H           4.1702    2.7204    0.0000 H       1  UNL1        0.0280
     54 H           6.3534    3.5818    0.0000 H       1  UNL1        0.0574
     55 H           2.0648   -1.3998    0.0000 H       1  UNL1        0.0661
     56 H           1.3834   -1.9516    0.0000 H       1  UNL1        0.0661
     57 H           1.9352   -2.6330    0.0000 H       1  UNL1        0.0661
     58 H           6.6734    1.8636    0.0000 H       1  UNL1        0.0272
     59 H           7.5437    1.9705    0.0000 H       1  UNL1        0.0272
     60 H           7.4368    2.8408    0.0000 H       1  UNL1        0.0272
@<TRIPOS>BOND
     1     1    10    1
     2     1    11    1
     3     2    12    1
     4     2    20    1
     5    16     3    1
     6     3    25    1
     7    19     4    1
     8     4    26    1
     9     5    20    2
    10     6    24    1
    11     6    31    1
    12     7    24    2
    13     8    25    2
    14     9    26    2
    15    10    11    1
    16    10    14    1
    17    10    15    1
    18    11    12    1
    19    11    33    1
    20    12    13    1
    21    12    34    1
    22    13    16    1
    23    13    18    1
    24    13    35    1
    25    14    17    1
    26    14    36    1
    27    14    37    1
    28    15    38    1
    29    15    39    1
    30    15    40    1
    31    16    19    1
    32    16    41    1
    33    17    21    1
    34    17    42    1
    35    17    43    1
    36    18    20    1
    37    18    23    2
    38    19    22    1
    39    19    44    1
    40    21    22    2
    41    21    45    1
    42    22    24    1
    43    23    46    1
    44    23    47    1
    45    25    27    1
    46    26    28    1
    47    27    29    1
    48    27    30    2
    49    28    48    1
    50    28    49    1
    51    28    50    1
    52    29    51    1
    53    29    52    1
    54    29    53    1
    55    30    32    1
    56    30    54    1
    57    31    55    1
    58    31    56    1
    59    31    57    1
    60    32    58    1
    61    32    59    1
    62    32    60    1
