@<TRIPOS>MOLECULE
IMPHY006114
 25 27 0 0 0
SMALL
GASTEIGER

@<TRIPOS>ATOM
      1 O           4.6660   -1.0000    0.0000 O.2     1  UNL1       -0.4508
      2 O           4.6660    2.0000    0.0000 O.2     1  UNL1       -0.2863
      3 O           6.4144    2.0346    0.0000 O.3     1  UNL1       -0.5059
      4 O           2.9176   -2.0346    0.0000 O.3     1  UNL1       -0.5033
      5 C           5.5321    0.5000    0.0000 C.ar    1  UNL1        0.1058
      6 C           3.8000    0.5000    0.0000 C.ar    1  UNL1        0.0683
      7 C           3.8000   -0.5000    0.0000 C.ar    1  UNL1        0.1804
      8 C           5.5321   -0.5000    0.0000 C.ar    1  UNL1        0.1430
      9 C           4.6660    1.0000    0.0000 C.ar    1  UNL1        0.2038
     10 C           6.4260    1.0347    0.0000 C.ar    1  UNL1        0.1312
     11 C           2.9061    1.0347    0.0000 C.ar    1  UNL1       -0.0471
     12 C           2.9061   -1.0347    0.0000 C.ar    1  UNL1        0.1598
     13 C           6.4260   -1.0347    0.0000 C.ar    1  UNL1       -0.0184
     14 C           7.3321    0.5208    0.0000 C.ar    1  UNL1       -0.0192
     15 C           2.0000   -0.5208    0.0000 C.ar    1  UNL1       -0.0165
     16 C           2.0000    0.5208    0.0000 C.ar    1  UNL1       -0.0574
     17 C           7.3321   -0.5208    0.0000 C.ar    1  UNL1       -0.0548
     18 H           2.9132    1.6546    0.0000 H       1  UNL1        0.0626
     19 H           6.4188   -1.6546    0.0000 H       1  UNL1        0.0654
     20 H           7.8678    0.8329    0.0000 H       1  UNL1        0.0654
     21 H           1.4643   -0.8329    0.0000 H       1  UNL1        0.0655
     22 H           1.4643    0.8329    0.0000 H       1  UNL1        0.0619
     23 H           7.8678   -0.8329    0.0000 H       1  UNL1        0.0620
     24 H           6.9478    2.3508    0.0000 H       1  UNL1        0.2922
     25 H           2.3843   -2.3508    0.0000 H       1  UNL1        0.2923
@<TRIPOS>BOND
     1     1     7   ar
     2     1     8   ar
     3     2     9    2
     4     3    10    1
     5     3    24    1
     6     4    12    1
     7     4    25    1
     8     5     8   ar
     9     5     9   ar
    10     5    10   ar
    11     6     7   ar
    12     6     9   ar
    13     6    11   ar
    14     7    12   ar
    15     8    13   ar
    16    10    14   ar
    17    11    16   ar
    18    11    18    1
    19    12    15   ar
    20    13    17   ar
    21    13    19    1
    22    14    17   ar
    23    14    20    1
    24    15    16   ar
    25    15    21    1
    26    16    22    1
    27    17    23    1
