@<TRIPOS>MOLECULE
IMPHY016905
 34 36 0 0 0
SMALL
GASTEIGER

@<TRIPOS>ATOM
      1 O           6.3981   -0.2704    0.0000 O.2     1  UNL1       -0.4507
      2 O           2.8680   -0.2945    0.0000 O.3     1  UNL1       -0.4949
      3 O           8.1301    1.7296    0.0000 O.3     1  UNL1       -0.5007
      4 O           4.6497    2.7642    0.0000 O.3     1  UNL1       -0.5058
      5 O           6.3981    2.7296    0.0000 O.2     1  UNL1       -0.2830
      6 O           8.9962   -2.7704    0.0000 O.3     1  UNL1       -0.5067
      7 C           5.5320    1.2296    0.0000 C.ar    1  UNL1        0.1092
      8 C           5.5320    0.2296    0.0000 C.ar    1  UNL1        0.1465
      9 C           7.2641    0.2296    0.0000 C.ar    1  UNL1        0.1807
     10 C           6.3981    1.7296    0.0000 C.ar    1  UNL1        0.2379
     11 C           7.2641    1.2296    0.0000 C.ar    1  UNL1        0.2082
     12 C           8.1301   -0.2704    0.0000 C.ar    1  UNL1        0.0245
     13 C           4.6381    1.7643    0.0000 C.ar    1  UNL1        0.1348
     14 C           4.6381   -0.3051    0.0000 C.ar    1  UNL1        0.0233
     15 C           3.7320    0.2088    0.0000 C.ar    1  UNL1        0.1271
     16 C           3.7320    1.2504    0.0000 C.ar    1  UNL1        0.0225
     17 C           8.1301   -1.2704    0.0000 C.ar    1  UNL1       -0.0094
     18 C           8.9962    0.2296    0.0000 C.ar    1  UNL1       -0.0507
     19 C           8.9962   -1.7704    0.0000 C.ar    1  UNL1        0.1175
     20 C           9.8622   -0.2704    0.0000 C.ar    1  UNL1       -0.0576
     21 C           9.8622   -1.2704    0.0000 C.ar    1  UNL1       -0.0201
     22 C           2.0000    0.2021    0.0000 C.3     1  UNL1        0.0788
     23 H           4.6453   -0.9250    0.0000 H       1  UNL1        0.0691
     24 H           3.1963    1.5625    0.0000 H       1  UNL1        0.0691
     25 H           7.5932   -1.5804    0.0000 H       1  UNL1        0.0661
     26 H           8.9962    0.8496    0.0000 H       1  UNL1        0.0625
     27 H          10.3991    0.0396    0.0000 H       1  UNL1        0.0619
     28 H          10.3991   -1.5804    0.0000 H       1  UNL1        0.0654
     29 H           8.1301    2.3496    0.0000 H       1  UNL1        0.2924
     30 H           4.1164    3.0804    0.0000 H       1  UNL1        0.2922
     31 H           2.3079    0.7402    0.0000 H       1  UNL1        0.0660
     32 H           1.4619    0.5100    0.0000 H       1  UNL1        0.0660
     33 H           1.6921   -0.3360    0.0000 H       1  UNL1        0.0660
     34 H           9.5331   -3.0804    0.0000 H       1  UNL1        0.2921
@<TRIPOS>BOND
     1     1     8   ar
     2     1     9   ar
     3     2    15    1
     4     2    22    1
     5     3    11    1
     6     3    29    1
     7     4    13    1
     8     4    30    1
     9     5    10    2
    10     6    19    1
    11     6    34    1
    12     7     8   ar
    13     7    10   ar
    14     7    13   ar
    15     8    14   ar
    16     9    11   ar
    17     9    12    1
    18    10    11   ar
    19    12    17   ar
    20    12    18   ar
    21    13    16   ar
    22    14    15   ar
    23    14    23    1
    24    15    16   ar
    25    16    24    1
    26    17    19   ar
    27    17    25    1
    28    18    20   ar
    29    18    26    1
    30    19    21   ar
    31    20    21   ar
    32    20    27    1
    33    21    28    1
    34    22    31    1
    35    22    32    1
    36    22    33    1
