@<TRIPOS>MOLECULE
IMPHY007413
 63 66 0 0 0
SMALL
GASTEIGER

@<TRIPOS>ATOM
      1 O           4.5741   -2.8325    0.0000 O.3     1  UNL1       -0.3660
      2 O           4.0701    0.2611    0.0000 O.3     1  UNL1       -0.4533
      3 O           6.2074   -0.0463    0.0000 O.3     1  UNL1       -0.4574
      4 O           2.9494    0.3461    0.0000 O.3     1  UNL1       -0.3909
      5 O           4.6973    0.2897    0.0000 O.3     1  UNL1       -0.3941
      6 O           5.5367    1.1826    0.0000 O.2     1  UNL1       -0.2449
      7 O           7.5480   -1.1430    0.0000 O.2     1  UNL1       -0.2512
      8 C           3.8001   -2.1993    0.0000 C.3     1  UNL1        0.0868
      9 C           3.8126   -1.1994    0.0000 C.3     1  UNL1        0.0891
     10 C           5.9968   -1.7266    0.0000 C.3     1  UNL1        0.0309
     11 C           4.8215   -1.6051    0.0000 C.3     1  UNL1       -0.0137
     12 C           4.6021   -0.5857    0.0000 C.3     1  UNL1        0.1531
     13 C           2.8996   -2.7228    0.0000 C.3     1  UNL1       -0.0138
     14 C           5.5518   -2.6221    0.0000 C.3     1  UNL1        0.0711
     15 C           5.5742   -0.8203    0.0000 C.3     1  UNL1        0.1460
     16 C           2.9254   -0.6536    0.0000 C.3     1  UNL1        0.0692
     17 C           2.0000   -2.1976    0.0000 C.3     1  UNL1       -0.0455
     18 C           2.0130   -1.1561    0.0000 C.3     1  UNL1       -0.0257
     19 C           3.8251   -0.1994    0.0000 C.3     1  UNL1        0.0584
     20 C           2.8987   -3.7228    0.0000 C.3     1  UNL1       -0.0598
     21 C           6.5123   -2.9001    0.0000 C.3     1  UNL1       -0.0357
     22 C           5.5842   -3.6216    0.0000 C.3     1  UNL1       -0.0357
     23 C           4.5374    1.1452    0.0000 C.2     1  UNL1        0.3396
     24 C           7.1943   -0.2077    0.0000 C.2     1  UNL1        0.3043
     25 C           4.0053    1.9919    0.0000 C.ar    1  UNL1        0.0590
     26 C           7.8275    0.5663    0.0000 C.3     1  UNL1        0.0332
     27 C           4.4726    2.8760    0.0000 C.ar    1  UNL1       -0.0478
     28 C           3.0060    1.9545    0.0000 C.ar    1  UNL1       -0.0478
     29 C           3.9406    3.7228    0.0000 C.ar    1  UNL1       -0.0610
     30 C           2.4740    2.8012    0.0000 C.ar    1  UNL1       -0.0610
     31 C           2.9413    3.6854    0.0000 C.ar    1  UNL1       -0.0617
     32 H           6.6168   -1.7344    0.0000 H       1  UNL1        0.0366
     33 H           5.0724   -1.0381    0.0000 H       1  UNL1        0.0298
     34 H           4.3596   -1.1915    0.0000 H       1  UNL1        0.0298
     35 H           4.9641   -0.0823    0.0000 H       1  UNL1        0.0780
     36 H           3.4368   -3.0322    0.0000 H       1  UNL1        0.0326
     37 H           6.1894   -0.8974    0.0000 H       1  UNL1        0.0775
     38 H           2.3954   -0.3318    0.0000 H       1  UNL1        0.0602
     39 H           1.3905   -2.0840    0.0000 H       1  UNL1        0.0270
     40 H           1.7837   -2.7787    0.0000 H       1  UNL1        0.0270
     41 H           1.8112   -0.5698    0.0000 H       1  UNL1        0.0290
     42 H           1.4008   -1.2546    0.0000 H       1  UNL1        0.0290
     43 H           3.6203    0.3858    0.0000 H       1  UNL1        0.0566
     44 H           3.2132   -0.2995    0.0000 H       1  UNL1        0.0566
     45 H           2.2787   -3.7222    0.0000 H       1  UNL1        0.0233
     46 H           2.8981   -4.3428    0.0000 H       1  UNL1        0.0233
     47 H           3.5187   -3.7233    0.0000 H       1  UNL1        0.0233
     48 H           6.3399   -3.4957    0.0000 H       1  UNL1        0.0257
     49 H           7.1079   -3.0725    0.0000 H       1  UNL1        0.0257
     50 H           6.6847   -2.3046    0.0000 H       1  UNL1        0.0257
     51 H           4.9645   -3.6417    0.0000 H       1  UNL1        0.0257
     52 H           5.6043   -4.2413    0.0000 H       1  UNL1        0.0257
     53 H           6.2038   -3.6015    0.0000 H       1  UNL1        0.0257
     54 H           2.4201    0.6689    0.0000 H       1  UNL1        0.2098
     55 H           5.2303   -0.0269    0.0000 H       1  UNL1        0.2094
     56 H           8.3074    0.1737    0.0000 H       1  UNL1        0.0342
     57 H           8.2201    1.0462    0.0000 H       1  UNL1        0.0342
     58 H           7.3476    0.9589    0.0000 H       1  UNL1        0.0342
     59 H           5.0922    2.8992    0.0000 H       1  UNL1        0.0626
     60 H           2.7163    1.4064    0.0000 H       1  UNL1        0.0626
     61 H           4.2303    4.2709    0.0000 H       1  UNL1        0.0618
     62 H           1.8544    2.7781    0.0000 H       1  UNL1        0.0618
     63 H           2.6114    4.2103    0.0000 H       1  UNL1        0.0618
@<TRIPOS>BOND
     1     1     8    1
     2     1    14    1
     3     2    12    1
     4     2    23    1
     5     3    15    1
     6     3    24    1
     7     4    16    1
     8     4    54    1
     9     5    19    1
    10     5    55    1
    11     6    23    2
    12     7    24    2
    13     8     9    1
    14     8    11    1
    15     8    13    1
    16     9    12    1
    17     9    16    1
    18     9    19    1
    19    10    11    1
    20    10    14    1
    21    10    15    1
    22    10    32    1
    23    11    33    1
    24    11    34    1
    25    12    15    1
    26    12    35    1
    27    13    17    1
    28    13    20    1
    29    13    36    1
    30    14    21    1
    31    14    22    1
    32    15    37    1
    33    16    18    1
    34    16    38    1
    35    17    18    1
    36    17    39    1
    37    17    40    1
    38    18    41    1
    39    18    42    1
    40    19    43    1
    41    19    44    1
    42    20    45    1
    43    20    46    1
    44    20    47    1
    45    21    48    1
    46    21    49    1
    47    21    50    1
    48    22    51    1
    49    22    52    1
    50    22    53    1
    51    23    25    1
    52    24    26    1
    53    25    27   ar
    54    25    28   ar
    55    26    56    1
    56    26    57    1
    57    26    58    1
    58    27    29   ar
    59    27    59    1
    60    28    30   ar
    61    28    60    1
    62    29    31   ar
    63    29    61    1
    64    30    31   ar
    65    30    62    1
    66    31    63    1
