@<TRIPOS>MOLECULE
IMPHY012854
 165 172 0 0 0
SMALL
GASTEIGER

@<TRIPOS>ATOM
      1 O          22.1241   -2.1484    0.0000 O.3     1  UNL1       -0.3849
      2 O          21.5601   -2.4770    0.0000 O.3     1  UNL1       -0.3851
      3 O          20.9028    1.2866    0.0000 O.3     1  UNL1       -0.4575
      4 O          22.4086    1.0487    0.0000 O.3     1  UNL1       -0.3803
      5 O          16.3933   -3.2832    0.0000 O.3     1  UNL1       -0.3477
      6 O          23.4208    1.6821    0.0000 O.2     1  UNL1       -0.2946
      7 O          19.1708    1.2799    0.0000 O.2     1  UNL1       -0.2456
      8 O          14.6613   -3.2832    0.0000 O.3     1  UNL1       -0.3456
      9 O          14.6613   -0.2832    0.0000 O.3     1  UNL1       -0.3770
     10 O          12.9292   -1.2832    0.0000 O.3     1  UNL1       -0.3429
     11 O          11.1972   -1.2832    0.0000 O.3     1  UNL1       -0.3456
     12 O          11.1972   -4.2832    0.0000 O.3     1  UNL1       -0.3770
     13 O           9.4651   -3.2832    0.0000 O.3     1  UNL1       -0.3429
     14 O           8.5991   -1.7832    0.0000 O.3     1  UNL1       -0.3456
     15 O           6.0010   -1.2832    0.0000 O.3     1  UNL1       -0.3429
     16 O           6.0010   -3.2832    0.0000 O.3     1  UNL1       -0.3770
     17 O           5.1350   -2.7832    0.0000 O.3     1  UNL1       -0.3456
     18 O           2.5369   -1.2832    0.0000 O.3     1  UNL1       -0.3770
     19 O           2.5369   -3.2832    0.0000 O.3     1  UNL1       -0.3867
     20 C          21.7785   -1.2101    0.0000 C.3     1  UNL1        0.1070
     21 C          21.7746   -0.2101    0.0000 C.3     1  UNL1        0.0718
     22 C          20.9144   -1.7134    0.0000 C.3     1  UNL1        0.1024
     23 C          20.0464   -1.2168    0.0000 C.3     1  UNL1        0.0033
     24 C          20.9067    0.2866    0.0000 C.3     1  UNL1        0.1149
     25 C          22.7197    0.0983    0.0000 C.3     1  UNL1        0.1347
     26 C          19.1384   -1.7271    0.0000 C.3     1  UNL1       -0.0053
     27 C          20.0426   -0.2168    0.0000 C.3     1  UNL1       -0.0086
     28 C          22.7259   -1.5112    0.0000 C.3     1  UNL1       -0.0175
     29 C          23.3064   -0.7042    0.0000 C.3     1  UNL1       -0.0136
     30 C          20.9345   -2.7549    0.0000 C.3     1  UNL1       -0.0025
     31 C          21.7708    0.7899    0.0000 C.3     1  UNL1       -0.0503
     32 C          19.1344   -2.7687    0.0000 C.2     1  UNL1       -0.0647
     33 C          18.2094   -1.1666    0.0000 C.3     1  UNL1       -0.0412
     34 C          20.0385   -3.2861    0.0000 C.2     1  UNL1       -0.0813
     35 C          19.1423   -0.7271    0.0000 C.3     1  UNL1       -0.0555
     36 C          23.5274    0.6878    0.0000 C.2     1  UNL1        0.1623
     37 C          18.2011   -3.3221    0.0000 C.3     1  UNL1       -0.0047
     38 C          17.2635   -1.6982    0.0000 C.3     1  UNL1       -0.0254
     39 C          17.2594   -2.7832    0.0000 C.3     1  UNL1        0.0654
     40 C          24.4418    0.2830    0.0000 C.3     1  UNL1       -0.0031
     41 C          20.0349    1.7832    0.0000 C.2     1  UNL1        0.3322
     42 C          15.5273   -2.7832    0.0000 C.3     1  UNL1        0.1624
     43 C          20.0310    2.7832    0.0000 C.2     1  UNL1        0.0217
     44 C          15.5273   -1.7832    0.0000 C.3     1  UNL1        0.0272
     45 C          19.1631    3.2799    0.0000 C.2     1  UNL1       -0.0633
     46 C          14.6613   -1.2832    0.0000 C.3     1  UNL1        0.0915
     47 C          13.7953   -2.7832    0.0000 C.3     1  UNL1        0.0875
     48 C          13.7953   -1.7832    0.0000 C.3     1  UNL1        0.1137
     49 C          19.1592    4.2799    0.0000 C.3     1  UNL1       -0.0253
     50 C          18.2990    2.7765    0.0000 C.3     1  UNL1       -0.0430
     51 C          12.9292   -3.2832    0.0000 C.3     1  UNL1       -0.0361
     52 C          18.2913    4.7765    0.0000 C.3     1  UNL1       -0.0590
     53 C          20.0233    4.7832    0.0000 C.3     1  UNL1       -0.0590
     54 C          12.0632   -1.7832    0.0000 C.3     1  UNL1        0.1626
     55 C          15.5273    0.2168    0.0000 C.3     1  UNL1        0.0369
     56 C          12.0632   -2.7832    0.0000 C.3     1  UNL1        0.0272
     57 C          11.1972   -3.2832    0.0000 C.3     1  UNL1        0.0915
     58 C          10.3312   -1.7832    0.0000 C.3     1  UNL1        0.0875
     59 C          10.3312   -2.7832    0.0000 C.3     1  UNL1        0.1137
     60 C           9.4651   -1.2832    0.0000 C.3     1  UNL1       -0.0361
     61 C           8.5991   -2.7832    0.0000 C.3     1  UNL1        0.1626
     62 C          12.0632   -4.7832    0.0000 C.3     1  UNL1        0.0369
     63 C           7.7331   -3.2832    0.0000 C.3     1  UNL1        0.0272
     64 C           6.8671   -2.7832    0.0000 C.3     1  UNL1        0.0915
     65 C           6.8671   -1.7832    0.0000 C.3     1  UNL1        0.1137
     66 C           7.7331   -1.2832    0.0000 C.3     1  UNL1        0.0875
     67 C           7.7331   -0.2832    0.0000 C.3     1  UNL1       -0.0361
     68 C           5.1350   -1.7832    0.0000 C.3     1  UNL1        0.1626
     69 C           4.2690   -1.2832    0.0000 C.3     1  UNL1        0.0272
     70 C           3.4030   -1.7832    0.0000 C.3     1  UNL1        0.0911
     71 C           3.4030   -2.7832    0.0000 C.3     1  UNL1        0.1073
     72 C           4.2690   -3.2832    0.0000 C.3     1  UNL1        0.0871
     73 C           6.0010   -4.2832    0.0000 C.3     1  UNL1        0.0369
     74 C           4.2690   -4.2832    0.0000 C.3     1  UNL1       -0.0361
     75 C           2.5369   -0.2832    0.0000 C.3     1  UNL1        0.0369
     76 H          20.7809   -0.7889    0.0000 H       1  UNL1        0.0339
     77 H          20.3685    0.5945    0.0000 H       1  UNL1        0.0741
     78 H          19.8283    0.3650    0.0000 H       1  UNL1        0.0305
     79 H          19.4324   -0.3268    0.0000 H       1  UNL1        0.0305
     80 H          22.4770   -2.0790    0.0000 H       1  UNL1        0.0295
     81 H          23.2644   -1.8183    0.0000 H       1  UNL1        0.0295
     82 H          23.7688   -1.1171    0.0000 H       1  UNL1        0.0298
     83 H          23.7656   -0.2877    0.0000 H       1  UNL1        0.0298
     84 H          21.1547   -3.3344    0.0000 H       1  UNL1        0.0336
     85 H          21.5432   -2.6370    0.0000 H       1  UNL1        0.0336
     86 H          22.3908    0.7923    0.0000 H       1  UNL1        0.0238
     87 H          21.7684    1.4099    0.0000 H       1  UNL1        0.0238
     88 H          21.1508    0.7875    0.0000 H       1  UNL1        0.0238
     89 H          18.6158   -0.6984    0.0000 H       1  UNL1        0.0274
     90 H          17.8176   -0.6861    0.0000 H       1  UNL1        0.0274
     91 H          20.0432   -3.9060    0.0000 H       1  UNL1        0.0573
     92 H          22.7351   -2.2538    0.0000 H       1  UNL1        0.2103
     93 H          19.7622   -0.7295    0.0000 H       1  UNL1        0.0238
     94 H          19.1446   -0.1071    0.0000 H       1  UNL1        0.0238
     95 H          18.5223   -0.7247    0.0000 H       1  UNL1        0.0238
     96 H          21.6702   -3.0871    0.0000 H       1  UNL1        0.2103
     97 H          17.8056   -3.7996    0.0000 H       1  UNL1        0.0335
     98 H          18.6039   -3.7934    0.0000 H       1  UNL1        0.0335
     99 H          17.0567   -1.1137    0.0000 H       1  UNL1        0.0290
    100 H          16.6523   -1.8019    0.0000 H       1  UNL1        0.0290
    101 H          16.7230   -2.4722    0.0000 H       1  UNL1        0.0600
    102 H          22.8225    1.5103    0.0000 H       1  UNL1        0.2108
    103 H          24.1909   -0.2839    0.0000 H       1  UNL1        0.0307
    104 H          25.0088    0.0320    0.0000 H       1  UNL1        0.0307
    105 H          24.6928    0.8499    0.0000 H       1  UNL1        0.0307
    106 H          15.5273   -3.4032    0.0000 H       1  UNL1        0.0910
    107 H          20.5668    3.0953    0.0000 H       1  UNL1        0.0688
    108 H          16.1379   -1.8908    0.0000 H       1  UNL1        0.0340
    109 H          15.7394   -1.2006    0.0000 H       1  UNL1        0.0340
    110 H          15.1982   -0.9732    0.0000 H       1  UNL1        0.0624
    111 H          13.7953   -3.4032    0.0000 H       1  UNL1        0.0621
    112 H          13.7953   -1.1632    0.0000 H       1  UNL1        0.0649
    113 H          19.6973    3.9719    0.0000 H       1  UNL1        0.0340
    114 H          17.9869    3.3123    0.0000 H       1  UNL1        0.0275
    115 H          17.7632    2.4645    0.0000 H       1  UNL1        0.0275
    116 H          18.6110    2.2408    0.0000 H       1  UNL1        0.0275
    117 H          12.6192   -2.7463    0.0000 H       1  UNL1        0.0255
    118 H          12.3923   -3.5932    0.0000 H       1  UNL1        0.0255
    119 H          13.2392   -3.8201    0.0000 H       1  UNL1        0.0255
    120 H          18.5992    5.3146    0.0000 H       1  UNL1        0.0235
    121 H          17.7531    5.0844    0.0000 H       1  UNL1        0.0235
    122 H          17.9833    4.2384    0.0000 H       1  UNL1        0.0235
    123 H          20.3354    4.2474    0.0000 H       1  UNL1        0.0235
    124 H          20.5590    5.0953    0.0000 H       1  UNL1        0.0235
    125 H          19.7112    5.3189    0.0000 H       1  UNL1        0.0235
    126 H          12.6002   -2.0932    0.0000 H       1  UNL1        0.0910
    127 H          15.8373   -0.3201    0.0000 H       1  UNL1        0.0524
    128 H          16.0643    0.5268    0.0000 H       1  UNL1        0.0524
    129 H          15.2173    0.7537    0.0000 H       1  UNL1        0.0524
    130 H          12.2753   -3.3658    0.0000 H       1  UNL1        0.0340
    131 H          12.6738   -2.6755    0.0000 H       1  UNL1        0.0340
    132 H          11.7341   -3.5932    0.0000 H       1  UNL1        0.0624
    133 H          10.3312   -1.1632    0.0000 H       1  UNL1        0.0621
    134 H           9.7942   -2.4732    0.0000 H       1  UNL1        0.0649
    135 H           9.7751   -0.7463    0.0000 H       1  UNL1        0.0255
    136 H           8.9282   -0.9732    0.0000 H       1  UNL1        0.0255
    137 H           9.1551   -1.8201    0.0000 H       1  UNL1        0.0255
    138 H           8.5991   -3.4032    0.0000 H       1  UNL1        0.0910
    139 H          11.7532   -5.3201    0.0000 H       1  UNL1        0.0524
    140 H          12.6002   -5.0932    0.0000 H       1  UNL1        0.0524
    141 H          12.3732   -4.2463    0.0000 H       1  UNL1        0.0524
    142 H           7.3346   -3.7581    0.0000 H       1  UNL1        0.0340
    143 H           8.1316   -3.7581    0.0000 H       1  UNL1        0.0340
    144 H           6.3301   -2.4732    0.0000 H       1  UNL1        0.0624
    145 H           6.8671   -1.1632    0.0000 H       1  UNL1        0.0649
    146 H           8.2700   -0.9732    0.0000 H       1  UNL1        0.0621
    147 H           8.3531   -0.2832    0.0000 H       1  UNL1        0.0255
    148 H           7.7331    0.3368    0.0000 H       1  UNL1        0.0255
    149 H           7.1131   -0.2832    0.0000 H       1  UNL1        0.0255
    150 H           5.1350   -1.1632    0.0000 H       1  UNL1        0.0910
    151 H           4.6675   -0.8082    0.0000 H       1  UNL1        0.0340
    152 H           3.8705   -0.8082    0.0000 H       1  UNL1        0.0340
    153 H           2.8660   -2.0932    0.0000 H       1  UNL1        0.0624
    154 H           3.4030   -3.4032    0.0000 H       1  UNL1        0.0645
    155 H           4.8059   -3.5932    0.0000 H       1  UNL1        0.0621
    156 H           5.3810   -4.2832    0.0000 H       1  UNL1        0.0524
    157 H           6.0010   -4.9032    0.0000 H       1  UNL1        0.0524
    158 H           6.6210   -4.2832    0.0000 H       1  UNL1        0.0524
    159 H           3.6490   -4.2832    0.0000 H       1  UNL1        0.0255
    160 H           4.2690   -4.9032    0.0000 H       1  UNL1        0.0255
    161 H           4.8890   -4.2832    0.0000 H       1  UNL1        0.0255
    162 H           2.0000   -2.9732    0.0000 H       1  UNL1        0.2100
    163 H           3.1569   -0.2832    0.0000 H       1  UNL1        0.0524
    164 H           2.5369    0.3368    0.0000 H       1  UNL1        0.0524
    165 H           1.9169   -0.2832    0.0000 H       1  UNL1        0.0524
@<TRIPOS>BOND
     1    20     1    1
     2     1    92    1
     3    22     2    1
     4     2    96    1
     5    24     3    1
     6     3    41    1
     7    25     4    1
     8     4   102    1
     9    39     5    1
    10     5    42    1
    11     6    36    2
    12     7    41    2
    13     8    42    1
    14     8    47    1
    15     9    46    1
    16     9    55    1
    17    10    48    1
    18    10    54    1
    19    11    54    1
    20    11    58    1
    21    12    57    1
    22    12    62    1
    23    13    59    1
    24    13    61    1
    25    14    61    1
    26    14    66    1
    27    15    65    1
    28    15    68    1
    29    16    64    1
    30    16    73    1
    31    17    68    1
    32    17    72    1
    33    18    70    1
    34    18    75    1
    35    19    71    1
    36    19   162    1
    37    20    21    1
    38    20    22    1
    39    20    28    1
    40    21    24    1
    41    21    25    1
    42    21    31    1
    43    22    23    1
    44    22    30    1
    45    23    26    1
    46    23    27    1
    47    23    76    1
    48    24    27    1
    49    24    77    1
    50    25    29    1
    51    25    36    1
    52    26    32    1
    53    26    33    1
    54    26    35    1
    55    27    78    1
    56    27    79    1
    57    28    29    1
    58    28    80    1
    59    28    81    1
    60    29    82    1
    61    29    83    1
    62    30    34    1
    63    30    84    1
    64    30    85    1
    65    31    86    1
    66    31    87    1
    67    31    88    1
    68    32    34    2
    69    32    37    1
    70    33    38    1
    71    33    89    1
    72    33    90    1
    73    34    91    1
    74    35    93    1
    75    35    94    1
    76    35    95    1
    77    36    40    1
    78    37    39    1
    79    37    97    1
    80    37    98    1
    81    38    39    1
    82    38    99    1
    83    38   100    1
    84    39   101    1
    85    40   103    1
    86    40   104    1
    87    40   105    1
    88    41    43    1
    89    42    44    1
    90    42   106    1
    91    43    45    2
    92    43   107    1
    93    44    46    1
    94    44   108    1
    95    44   109    1
    96    45    49    1
    97    45    50    1
    98    46    48    1
    99    46   110    1
   100    47    48    1
   101    47    51    1
   102    47   111    1
   103    48   112    1
   104    49    52    1
   105    49    53    1
   106    49   113    1
   107    50   114    1
   108    50   115    1
   109    50   116    1
   110    51   117    1
   111    51   118    1
   112    51   119    1
   113    52   120    1
   114    52   121    1
   115    52   122    1
   116    53   123    1
   117    53   124    1
   118    53   125    1
   119    54    56    1
   120    54   126    1
   121    55   127    1
   122    55   128    1
   123    55   129    1
   124    56    57    1
   125    56   130    1
   126    56   131    1
   127    57    59    1
   128    57   132    1
   129    58    59    1
   130    58    60    1
   131    58   133    1
   132    59   134    1
   133    60   135    1
   134    60   136    1
   135    60   137    1
   136    61    63    1
   137    61   138    1
   138    62   139    1
   139    62   140    1
   140    62   141    1
   141    63    64    1
   142    63   142    1
   143    63   143    1
   144    64    65    1
   145    64   144    1
   146    65    66    1
   147    65   145    1
   148    66    67    1
   149    66   146    1
   150    67   147    1
   151    67   148    1
   152    67   149    1
   153    68    69    1
   154    68   150    1
   155    69    70    1
   156    69   151    1
   157    69   152    1
   158    70    71    1
   159    70   153    1
   160    71    72    1
   161    71   154    1
   162    72    74    1
   163    72   155    1
   164    73   156    1
   165    73   157    1
   166    73   158    1
   167    74   159    1
   168    74   160    1
   169    74   161    1
   170    75   163    1
   171    75   164    1
   172    75   165    1
