@<TRIPOS>MOLECULE
IMPHY007957
 42 45 0 0 0
SMALL
GASTEIGER

@<TRIPOS>ATOM
      1 O           7.2641   -1.2673    0.0000 O.3     1  UNL1       -0.5054
      2 O           4.6660    1.2327    0.0000 O.2     1  UNL1       -0.2865
      3 O           4.6660   -2.7673    0.0000 O.2     1  UNL1       -0.2870
      4 O           2.9176    1.2673    0.0000 O.3     1  UNL1       -0.5060
      5 O           9.0125    2.7673    0.0000 O.2     1  UNL1       -0.2870
      6 O           9.0125   -1.3019    0.0000 O.2     1  UNL1       -0.2871
      7 C           5.5321   -0.2673    0.0000 C.2     1  UNL1        0.0396
      8 C           6.3981    0.2327    0.0000 C.ar    1  UNL1        0.0284
      9 C           5.5321   -1.2673    0.0000 C.2     1  UNL1        0.0083
     10 C           8.1301    0.2327    0.0000 C.ar    1  UNL1        0.0744
     11 C           3.8000   -0.2673    0.0000 C.ar    1  UNL1        0.0744
     12 C           7.2641   -0.2673    0.0000 C.ar    1  UNL1        0.1361
     13 C           4.6660    0.2327    0.0000 C.2     1  UNL1        0.1984
     14 C           8.1301    1.2327    0.0000 C.ar    1  UNL1        0.0363
     15 C           3.8000   -1.2673    0.0000 C.ar    1  UNL1        0.0363
     16 C           4.6660   -1.7673    0.0000 C.2     1  UNL1        0.1904
     17 C           6.3981    1.2327    0.0000 C.ar    1  UNL1       -0.0497
     18 C           7.2641    1.7327    0.0000 C.ar    1  UNL1       -0.0494
     19 C           9.0241    1.7674    0.0000 C.2     1  UNL1        0.1898
     20 C           9.0241   -0.3020    0.0000 C.2     1  UNL1        0.1906
     21 C           6.3981   -1.7673    0.0000 C.3     1  UNL1       -0.0354
     22 C           2.9061    0.2674    0.0000 C.ar    1  UNL1        0.1283
     23 C           9.9301    1.2535    0.0000 C.2     1  UNL1        0.0004
     24 C           2.9061   -1.8020    0.0000 C.ar    1  UNL1       -0.0500
     25 C           9.9301    0.2119    0.0000 C.2     1  UNL1       -0.0077
     26 C           2.0000   -0.2465    0.0000 C.ar    1  UNL1       -0.0194
     27 C           2.0000   -1.2881    0.0000 C.ar    1  UNL1       -0.0576
     28 C          10.7942    1.7568    0.0000 C.3     1  UNL1       -0.0359
     29 H           5.8612    1.5427    0.0000 H       1  UNL1        0.0625
     30 H           7.2641    2.3527    0.0000 H       1  UNL1        0.0625
     31 H           6.0881   -2.3042    0.0000 H       1  UNL1        0.0279
     32 H           6.9350   -2.0773    0.0000 H       1  UNL1        0.0279
     33 H           6.7081   -1.2304    0.0000 H       1  UNL1        0.0279
     34 H           2.9132   -2.4219    0.0000 H       1  UNL1        0.0625
     35 H          10.4659   -0.1002    0.0000 H       1  UNL1        0.0660
     36 H           1.4643    0.0656    0.0000 H       1  UNL1        0.0654
     37 H           1.4643   -1.6002    0.0000 H       1  UNL1        0.0619
     38 H          11.1063    1.2211    0.0000 H       1  UNL1        0.0279
     39 H          11.3300    2.0689    0.0000 H       1  UNL1        0.0279
     40 H          10.4822    2.2926    0.0000 H       1  UNL1        0.0279
     41 H           7.8010   -1.5773    0.0000 H       1  UNL1        0.2922
     42 H           2.3843    1.5835    0.0000 H       1  UNL1        0.2922
@<TRIPOS>BOND
     1     1    12    1
     2     1    41    1
     3     2    13    2
     4     3    16    2
     5     4    22    1
     6     4    42    1
     7     5    19    2
     8     6    20    2
     9     7     8    1
    10     7     9    2
    11     7    13    1
    12     8    12   ar
    13     8    17   ar
    14     9    16    1
    15     9    21    1
    16    10    12   ar
    17    10    14   ar
    18    10    20    1
    19    11    13    1
    20    11    15   ar
    21    11    22   ar
    22    14    18   ar
    23    14    19    1
    24    15    16    1
    25    15    24   ar
    26    17    18   ar
    27    17    29    1
    28    18    30    1
    29    19    23    1
    30    20    25    1
    31    21    31    1
    32    21    32    1
    33    21    33    1
    34    22    26   ar
    35    23    25    2
    36    23    28    1
    37    24    27   ar
    38    24    34    1
    39    25    35    1
    40    26    27   ar
    41    26    36    1
    42    27    37    1
    43    28    38    1
    44    28    39    1
    45    28    40    1
