@<TRIPOS>MOLECULE
IMPHY009592
 48 49 0 0 0
SMALL
GASTEIGER

@<TRIPOS>ATOM
      1 O           7.7331    0.5000    0.0000 O.3     1  UNL1       -0.3405
      2 O           4.2690   -0.5000    0.0000 O.3     1  UNL1       -0.3405
      3 O           6.0010   -0.5000    0.0000 O.3     1  UNL1       -0.3460
      4 O           6.0010    2.5000    0.0000 O.3     1  UNL1       -0.3865
      5 O           6.0010   -2.5000    0.0000 O.3     1  UNL1       -0.3841
      6 O           7.7331    3.5000    0.0000 O.3     1  UNL1       -0.3864
      7 O           4.2690   -3.5000    0.0000 O.3     1  UNL1       -0.3864
      8 O           2.5369   -2.5000    0.0000 O.3     1  UNL1       -0.3865
      9 O           9.4651    0.5000    0.0000 O.3     1  UNL1       -0.3520
     10 O           9.4651    2.5000    0.0000 O.3     1  UNL1       -0.3841
     11 O           2.5369    0.5000    0.0000 O.3     1  UNL1       -0.3924
     12 C           6.8671    1.0000    0.0000 C.3     1  UNL1        0.1134
     13 C           6.8671    2.0000    0.0000 C.3     1  UNL1        0.1119
     14 C           5.1350   -2.0000    0.0000 C.3     1  UNL1        0.1341
     15 C           7.7331    2.5000    0.0000 C.3     1  UNL1        0.1141
     16 C           4.2690   -2.5000    0.0000 C.3     1  UNL1        0.1141
     17 C           5.1350   -1.0000    0.0000 C.3     1  UNL1        0.1880
     18 C           3.4030   -2.0000    0.0000 C.3     1  UNL1        0.1119
     19 C           3.4030   -1.0000    0.0000 C.3     1  UNL1        0.1130
     20 C           8.5991    2.0000    0.0000 C.3     1  UNL1        0.1341
     21 C           6.0010    0.5000    0.0000 C.3     1  UNL1        0.0796
     22 C           8.5991    1.0000    0.0000 C.3     1  UNL1        0.1876
     23 C           2.5369   -0.5000    0.0000 C.3     1  UNL1        0.0730
     24 C           9.4651   -0.5000    0.0000 C.3     1  UNL1        0.0395
     25 H           6.8671    0.3800    0.0000 H       1  UNL1        0.0647
     26 H           6.3301    1.6900    0.0000 H       1  UNL1        0.0647
     27 H           5.1350   -2.6200    0.0000 H       1  UNL1        0.0671
     28 H           7.1962    2.8100    0.0000 H       1  UNL1        0.0648
     29 H           3.7320   -2.8100    0.0000 H       1  UNL1        0.0648
     30 H           5.1350   -0.3800    0.0000 H       1  UNL1        0.0937
     31 H           2.8660   -1.6900    0.0000 H       1  UNL1        0.0647
     32 H           3.4030   -0.3800    0.0000 H       1  UNL1        0.0647
     33 H           8.5991    2.6200    0.0000 H       1  UNL1        0.0671
     34 H           5.7890    1.0826    0.0000 H       1  UNL1        0.0587
     35 H           5.3905    0.3923    0.0000 H       1  UNL1        0.0587
     36 H           8.5991    0.3800    0.0000 H       1  UNL1        0.0937
     37 H           1.9264   -0.3923    0.0000 H       1  UNL1        0.0584
     38 H           2.3249   -1.0826    0.0000 H       1  UNL1        0.0584
     39 H           6.0010    3.1200    0.0000 H       1  UNL1        0.2100
     40 H           6.5380   -2.1900    0.0000 H       1  UNL1        0.2101
     41 H           8.2700    3.8100    0.0000 H       1  UNL1        0.2100
     42 H           3.7320   -3.8100    0.0000 H       1  UNL1        0.2100
     43 H           2.0000   -2.1900    0.0000 H       1  UNL1        0.2100
     44 H          10.0021    2.1900    0.0000 H       1  UNL1        0.2101
     45 H           2.0000    0.8100    0.0000 H       1  UNL1        0.2095
     46 H           8.8451   -0.5000    0.0000 H       1  UNL1        0.0525
     47 H           9.4651   -1.1200    0.0000 H       1  UNL1        0.0525
     48 H          10.0851   -0.5000    0.0000 H       1  UNL1        0.0525
@<TRIPOS>BOND
     1     1    12    1
     2     1    22    1
     3     2    17    1
     4     2    19    1
     5    17     3    1
     6     3    21    1
     7    13     4    1
     8     4    39    1
     9    14     5    1
    10     5    40    1
    11    15     6    1
    12     6    41    1
    13    16     7    1
    14     7    42    1
    15    18     8    1
    16     8    43    1
    17    22     9    1
    18     9    24    1
    19    20    10    1
    20    10    44    1
    21    11    23    1
    22    11    45    1
    23    12    13    1
    24    12    21    1
    25    12    25    1
    26    13    15    1
    27    13    26    1
    28    14    16    1
    29    14    17    1
    30    14    27    1
    31    15    20    1
    32    15    28    1
    33    16    18    1
    34    16    29    1
    35    17    30    1
    36    18    19    1
    37    18    31    1
    38    19    23    1
    39    19    32    1
    40    20    22    1
    41    20    33    1
    42    21    34    1
    43    21    35    1
    44    22    36    1
    45    23    37    1
    46    23    38    1
    47    24    46    1
    48    24    47    1
    49    24    48    1
