@<TRIPOS>MOLECULE
IMPHY006097
 45 48 0 0 0
SMALL
GASTEIGER

@<TRIPOS>ATOM
      1 O           4.2864   -2.7044    0.0000 O.3     1  UNL1       -0.4814
      2 O           2.5405    0.4529    0.0000 O.3     1  UNL1       -0.5059
      3 O           7.8129    1.4466    0.0000 O.3     1  UNL1       -0.4895
      4 O           3.4446    1.9498    0.0000 O.2     1  UNL1       -0.2864
      5 O           7.8287    3.4949    0.0000 O.3     1  UNL1       -0.5032
      6 N           6.0427    0.4498    0.0000 N.ar    1  UNL1       -0.3392
      7 C           5.1767   -0.0502    0.0000 C.ar    1  UNL1        0.0673
      8 C           5.2260   -3.2469    0.0000 C.3     1  UNL1        0.1235
      9 C           5.1928   -1.0917    0.0000 C.ar    1  UNL1        0.0409
     10 C           4.3107    0.4498    0.0000 C.ar    1  UNL1        0.0879
     11 C           4.2947   -1.6195    0.0000 C.ar    1  UNL1        0.1343
     12 C           6.0427    1.4498    0.0000 C.ar    1  UNL1        0.0988
     13 C           5.1767    1.9498    0.0000 C.ar    1  UNL1        0.0497
     14 C           6.1614   -2.6972    0.0000 C.2     1  UNL1       -0.0408
     15 C           6.1447   -1.6124    0.0000 C.2     1  UNL1       -0.0493
     16 C           4.3107    1.4498    0.0000 C.ar    1  UNL1        0.2007
     17 C           3.4007   -0.0571    0.0000 C.ar    1  UNL1        0.1332
     18 C           3.3926   -1.0987    0.0000 C.ar    1  UNL1        0.0230
     19 C           5.7293   -4.1110    0.0000 C.3     1  UNL1       -0.0215
     20 C           4.7293   -4.1149    0.0000 C.3     1  UNL1       -0.0215
     21 C           6.9088   -0.0502    0.0000 C.3     1  UNL1        0.0126
     22 C           6.9527    1.9566    0.0000 C.ar    1  UNL1        0.1855
     23 C           5.1606    2.9913    0.0000 C.ar    1  UNL1       -0.0452
     24 C           6.9608    2.9982    0.0000 C.ar    1  UNL1        0.1606
     25 C           6.0587    3.5190    0.0000 C.ar    1  UNL1       -0.0157
     26 C           8.6847    1.9366    0.0000 C.3     1  UNL1        0.0791
     27 H           6.7019   -3.0010    0.0000 H       1  UNL1        0.0611
     28 H           6.6756   -1.2921    0.0000 H       1  UNL1        0.0623
     29 H           2.8545   -1.4066    0.0000 H       1  UNL1        0.0691
     30 H           5.1936   -4.4231    0.0000 H       1  UNL1        0.0271
     31 H           4.1912   -3.8070    0.0000 H       1  UNL1        0.0271
     32 H           4.4214   -4.6530    0.0000 H       1  UNL1        0.0271
     33 H           5.2675   -4.4228    0.0000 H       1  UNL1        0.0271
     34 H           6.0414   -4.6468    0.0000 H       1  UNL1        0.0271
     35 H           6.2651   -3.7990    0.0000 H       1  UNL1        0.0271
     36 H           6.5988   -0.5872    0.0000 H       1  UNL1        0.0456
     37 H           7.4457   -0.3602    0.0000 H       1  UNL1        0.0456
     38 H           7.2188    0.4867    0.0000 H       1  UNL1        0.0456
     39 H           4.6202    3.2951    0.0000 H       1  UNL1        0.0626
     40 H           6.0563    4.1390    0.0000 H       1  UNL1        0.0655
     41 H           2.0000    0.1491    0.0000 H       1  UNL1        0.2922
     42 H           7.8311    4.1149    0.0000 H       1  UNL1        0.2923
     43 H           8.9884    1.3961    0.0000 H       1  UNL1        0.0660
     44 H           9.2251    2.2404    0.0000 H       1  UNL1        0.0660
     45 H           8.3809    2.4771    0.0000 H       1  UNL1        0.0660
@<TRIPOS>BOND
     1     1     8    1
     2     1    11    1
     3     2    17    1
     4     2    41    1
     5     3    22    1
     6     3    26    1
     7     4    16    2
     8     5    24    1
     9     5    42    1
    10     6     7   ar
    11     6    12   ar
    12     6    21    1
    13     7     9   ar
    14     7    10   ar
    15     8    14    1
    16     8    19    1
    17     8    20    1
    18     9    11   ar
    19     9    15    1
    20    10    16   ar
    21    10    17   ar
    22    11    18   ar
    23    12    13   ar
    24    12    22   ar
    25    13    16   ar
    26    13    23   ar
    27    14    15    2
    28    14    27    1
    29    15    28    1
    30    17    18   ar
    31    18    29    1
    32    19    30    1
    33    19    34    1
    34    19    35    1
    35    20    31    1
    36    20    32    1
    37    20    33    1
    38    21    36    1
    39    21    37    1
    40    21    38    1
    41    22    24   ar
    42    23    25   ar
    43    23    39    1
    44    24    25   ar
    45    25    40    1
    46    26    43    1
    47    26    44    1
    48    26    45    1
