@<TRIPOS>MOLECULE
IMPHY012387
 56 59 0 0 0
SMALL
GASTEIGER

@<TRIPOS>ATOM
      1 O           8.1002   -2.4153    0.0000 O.3     1  UNL1       -0.3829
      2 O           4.6361   -2.4153    0.0000 O.2     1  UNL1       -0.2915
      3 O           3.7319   -0.9185    0.0000 O.3     1  UNL1       -0.4540
      4 O           3.7161    1.1298    0.0000 O.3     1  UNL1       -0.3872
      5 O           8.1002   -0.4153    0.0000 O.2     1  UNL1       -0.2896
      6 O           2.8486    0.5714    0.0000 O.2     1  UNL1       -0.2511
      7 C           6.3682   -2.4153    0.0000 C.3     1  UNL1        0.0692
      8 C           6.8682   -3.2814    0.0000 C.3     1  UNL1       -0.0274
      9 C           5.8682   -3.2814    0.0000 C.3     1  UNL1       -0.0337
     10 C           7.2342   -1.9153    0.0000 C.3     1  UNL1        0.1301
     11 C           6.3842    0.6262    0.0000 C.3     1  UNL1        0.0061
     12 C           5.5021   -1.9153    0.0000 C.2     1  UNL1        0.1724
     13 C           6.3682   -0.4153    0.0000 C.2     1  UNL1        0.0143
     14 C           5.4862    1.1539    0.0000 C.3     1  UNL1        0.0194
     15 C           5.5021   -0.9153    0.0000 C.2     1  UNL1        0.0454
     16 C           7.2342   -0.9153    0.0000 C.2     1  UNL1        0.1894
     17 C           4.5921   -0.4085    0.0000 C.3     1  UNL1        0.1579
     18 C           4.5841    0.6331    0.0000 C.3     1  UNL1        0.1036
     19 C           7.7342   -3.7814    0.0000 C.3     1  UNL1       -0.0614
     20 C           7.3361    1.1468    0.0000 C.3     1  UNL1       -0.0392
     21 C           5.4778    2.2389    0.0000 C.2     1  UNL1       -0.0671
     22 C           7.2464    0.1195    0.0000 C.3     1  UNL1       -0.0548
     23 C           7.3529    2.2316    0.0000 C.3     1  UNL1       -0.0309
     24 C           6.4174    2.7814    0.0000 C.2     1  UNL1       -0.0732
     25 C           4.6099    2.7355    0.0000 C.3     1  UNL1       -0.0432
     26 C           6.4213    3.7814    0.0000 C.3     1  UNL1       -0.0435
     27 C           2.8602   -0.4285    0.0000 C.2     1  UNL1        0.3046
     28 C           2.0000   -0.9385    0.0000 C.3     1  UNL1        0.0333
     29 H           6.7077   -3.8802    0.0000 H       1  UNL1        0.0309
     30 H           5.2855   -3.0693    0.0000 H       1  UNL1        0.0279
     31 H           5.7605   -3.8920    0.0000 H       1  UNL1        0.0279
     32 H           7.2342   -2.5353    0.0000 H       1  UNL1        0.0686
     33 H           4.9480    1.4619    0.0000 H       1  UNL1        0.0381
     34 H           4.0522   -0.1037    0.0000 H       1  UNL1        0.0813
     35 H           4.5829    1.2531    0.0000 H       1  UNL1        0.0640
     36 H           7.4242   -4.3183    0.0000 H       1  UNL1        0.0233
     37 H           8.2711   -4.0914    0.0000 H       1  UNL1        0.0233
     38 H           8.0442   -3.2444    0.0000 H       1  UNL1        0.0233
     39 H           7.5362    0.5599    0.0000 H       1  UNL1        0.0277
     40 H           7.9486    1.2434    0.0000 H       1  UNL1        0.0277
     41 H           6.9322   -0.4150    0.0000 H       1  UNL1        0.0238
     42 H           7.7809   -0.1946    0.0000 H       1  UNL1        0.0238
     43 H           7.5605    0.6540    0.0000 H       1  UNL1        0.0238
     44 H           7.9620    2.1162    0.0000 H       1  UNL1        0.0310
     45 H           7.5709    2.8120    0.0000 H       1  UNL1        0.0310
     46 H           8.6371   -2.1053    0.0000 H       1  UNL1        0.2104
     47 H           4.9178    3.2737    0.0000 H       1  UNL1        0.0275
     48 H           4.0717    3.0435    0.0000 H       1  UNL1        0.0275
     49 H           4.3019    2.1974    0.0000 H       1  UNL1        0.0275
     50 H           3.7138    1.7498    0.0000 H       1  UNL1        0.2100
     51 H           7.0413    3.7790    0.0000 H       1  UNL1        0.0274
     52 H           6.4237    4.4014    0.0000 H       1  UNL1        0.0274
     53 H           5.8013    3.7838    0.0000 H       1  UNL1        0.0274
     54 H           1.6838   -0.4052    0.0000 H       1  UNL1        0.0342
     55 H           1.4667   -1.2547    0.0000 H       1  UNL1        0.0342
     56 H           2.3162   -1.4718    0.0000 H       1  UNL1        0.0342
@<TRIPOS>BOND
     1     1    10    1
     2     1    46    1
     3     2    12    2
     4     3    17    1
     5     3    27    1
     6     4    18    1
     7     4    50    1
     8     5    16    2
     9     6    27    2
    10     7     8    1
    11     7     9    1
    12     7    10    1
    13     7    12    1
    14     8     9    1
    15     8    19    1
    16     8    29    1
    17     9    30    1
    18     9    31    1
    19    10    16    1
    20    10    32    1
    21    11    13    1
    22    11    14    1
    23    11    20    1
    24    11    22    1
    25    12    15    1
    26    13    15    2
    27    13    16    1
    28    14    18    1
    29    14    21    1
    30    14    33    1
    31    15    17    1
    32    17    18    1
    33    17    34    1
    34    18    35    1
    35    19    36    1
    36    19    37    1
    37    19    38    1
    38    20    23    1
    39    20    39    1
    40    20    40    1
    41    21    24    2
    42    21    25    1
    43    22    41    1
    44    22    42    1
    45    22    43    1
    46    23    24    1
    47    23    44    1
    48    23    45    1
    49    24    26    1
    50    25    47    1
    51    25    48    1
    52    25    49    1
    53    26    51    1
    54    26    52    1
    55    26    53    1
    56    27    28    1
    57    28    54    1
    58    28    55    1
    59    28    56    1
