@<TRIPOS>MOLECULE
IMPHY002320
 79 84 0 0 0
SMALL
GASTEIGER

@<TRIPOS>ATOM
      1 O           4.7530    2.4130    0.0000 O.3     1  UNL1       -0.3678
      2 O           4.6396    4.8094    0.0000 O.3     1  UNL1       -0.3886
      3 O           6.3717    3.8094    0.0000 O.3     1  UNL1       -0.3891
      4 O           2.8776   -4.5966    0.0000 O.3     1  UNL1       -0.4802
      5 O           2.0000   -3.1033    0.0000 O.2     1  UNL1       -0.2504
      6 C           3.7736    2.3094    0.0000 C.3     1  UNL1        0.0109
      7 C           4.6396    1.8094    0.0000 C.3     1  UNL1        0.0997
      8 C           3.7736    3.3094    0.0000 C.3     1  UNL1        0.0280
      9 C           3.7577    0.2402    0.0000 C.3     1  UNL1        0.0010
     10 C           3.7493   -0.8448    0.0000 C.3     1  UNL1       -0.0013
     11 C           4.6557    0.7679    0.0000 C.2     1  UNL1       -0.0308
     12 C           2.8636    1.8026    0.0000 C.3     1  UNL1       -0.0432
     13 C           2.8556    0.7610    0.0000 C.3     1  UNL1       -0.0424
     14 C           5.5057    2.3094    0.0000 C.3     1  UNL1        0.0092
     15 C           4.6396    3.8094    0.0000 C.3     1  UNL1        0.0892
     16 C           4.3530    3.1059    0.0000 C.3     1  UNL1        0.0572
     17 C           5.5057    3.3094    0.0000 C.3     1  UNL1        0.0846
     18 C           4.6889   -1.3873    0.0000 C.2     1  UNL1       -0.0587
     19 C           4.7064   -2.5173    0.0000 C.3     1  UNL1       -0.0028
     20 C           2.9076    2.8094    0.0000 C.3     1  UNL1       -0.0560
     21 C           2.7620   -1.3947    0.0000 C.3     1  UNL1       -0.0421
     22 C           3.7320   -3.0899    0.0000 C.3     1  UNL1        0.0741
     23 C           3.2736    4.1755    0.0000 C.3     1  UNL1       -0.0544
     24 C           2.7742    0.0590    0.0000 C.3     1  UNL1       -0.0549
     25 C           2.7532   -2.5248    0.0000 C.3     1  UNL1       -0.0359
     26 C           5.6076    0.2473    0.0000 C.2     1  UNL1       -0.0593
     27 C           2.7645   -0.6711    0.0000 C.3     1  UNL1       -0.0550
     28 C           5.6244   -0.8376    0.0000 C.2     1  UNL1       -0.0616
     29 C           5.7392   -3.0822    0.0000 C.3     1  UNL1       -0.0403
     30 C           3.7229   -4.2671    0.0000 C.3     1  UNL1       -0.0362
     31 C           5.7574   -4.2593    0.0000 C.3     1  UNL1       -0.0343
     32 C           4.7424   -4.8557    0.0000 C.3     1  UNL1       -0.0468
     33 C           2.8698   -3.5966    0.0000 C.2     1  UNL1        0.3115
     34 C           6.2673   -5.1194    0.0000 C.3     1  UNL1       -0.0598
     35 C           6.7573   -4.2477    0.0000 C.3     1  UNL1       -0.0598
     36 H           2.6591    2.3879    0.0000 H       1  UNL1        0.0272
     37 H           2.2520    1.7012    0.0000 H       1  UNL1        0.0272
     38 H           2.2456    0.8718    0.0000 H       1  UNL1        0.0274
     39 H           2.6420    0.1789    0.0000 H       1  UNL1        0.0274
     40 H           5.7177    1.7268    0.0000 H       1  UNL1        0.0322
     41 H           6.1163    2.4171    0.0000 H       1  UNL1        0.0322
     42 H           5.1766    4.1194    0.0000 H       1  UNL1        0.0625
     43 H           4.9558    3.2511    0.0000 H       1  UNL1        0.0567
     44 H           4.3845    3.7250    0.0000 H       1  UNL1        0.0567
     45 H           6.0426    2.9994    0.0000 H       1  UNL1        0.0620
     46 H           5.4342   -2.0782    0.0000 H       1  UNL1        0.0357
     47 H           3.2176    3.3464    0.0000 H       1  UNL1        0.0236
     48 H           2.3707    3.1194    0.0000 H       1  UNL1        0.0236
     49 H           2.5976    2.2725    0.0000 H       1  UNL1        0.0236
     50 H           2.5574   -0.8094    0.0000 H       1  UNL1        0.0274
     51 H           2.1503   -1.4961    0.0000 H       1  UNL1        0.0274
     52 H           3.8106    4.4855    0.0000 H       1  UNL1        0.0237
     53 H           2.9636    4.7124    0.0000 H       1  UNL1        0.0237
     54 H           2.7367    3.8655    0.0000 H       1  UNL1        0.0237
     55 H           2.6619    0.6687    0.0000 H       1  UNL1        0.0238
     56 H           2.1645   -0.0534    0.0000 H       1  UNL1        0.0238
     57 H           2.8866   -0.5508    0.0000 H       1  UNL1        0.0238
     58 H           2.1432   -2.4140    0.0000 H       1  UNL1        0.0276
     59 H           2.5397   -3.1069    0.0000 H       1  UNL1        0.0276
     60 H           6.1385    0.5676    0.0000 H       1  UNL1        0.0618
     61 H           2.8722   -0.0606    0.0000 H       1  UNL1        0.0238
     62 H           2.1539   -0.5635    0.0000 H       1  UNL1        0.0238
     63 H           2.6568   -1.2817    0.0000 H       1  UNL1        0.0238
     64 H           6.3516   -3.1788    0.0000 H       1  UNL1        0.0276
     65 H           5.9392   -2.4953    0.0000 H       1  UNL1        0.0276
     66 H           6.1649   -1.1413    0.0000 H       1  UNL1        0.0617
     67 H           3.1129   -4.1563    0.0000 H       1  UNL1        0.0276
     68 H           3.5094   -4.8492    0.0000 H       1  UNL1        0.0276
     69 H           4.3451   -5.3317    0.0000 H       1  UNL1        0.0271
     70 H           5.1434   -5.3286    0.0000 H       1  UNL1        0.0271
     71 H           5.1766    5.1194    0.0000 H       1  UNL1        0.2099
     72 H           6.9086    3.4994    0.0000 H       1  UNL1        0.2099
     73 H           5.7340   -5.4356    0.0000 H       1  UNL1        0.0235
     74 H           6.7644   -4.8676    0.0000 H       1  UNL1        0.0235
     75 H           7.3772   -4.2405    0.0000 H       1  UNL1        0.0235
     76 H           6.7501   -3.6277    0.0000 H       1  UNL1        0.0235
     77 H           6.5835   -5.6528    0.0000 H       1  UNL1        0.0235
     78 H           6.8006   -4.8032    0.0000 H       1  UNL1        0.0235
     79 H           2.3430   -4.9107    0.0000 H       1  UNL1        0.2951
@<TRIPOS>BOND
     1     1     7    1
     2     1    16    1
     3    15     2    1
     4     2    71    1
     5    17     3    1
     6     3    72    1
     7     4    33    1
     8     4    79    1
     9     5    33    2
    10     6     7    1
    11     6     8    1
    12     6    12    1
    13     6    20    1
    14     7    11    1
    15     7    14    1
    16     8    15    1
    17     8    16    1
    18     8    23    1
    19     9    10    1
    20     9    11    1
    21     9    13    1
    22     9    24    1
    23    10    18    1
    24    10    21    1
    25    10    27    1
    26    11    26    2
    27    12    13    1
    28    12    36    1
    29    12    37    1
    30    13    38    1
    31    13    39    1
    32    14    17    1
    33    14    40    1
    34    14    41    1
    35    15    17    1
    36    15    42    1
    37    16    43    1
    38    16    44    1
    39    17    45    1
    40    18    19    1
    41    18    28    2
    42    19    22    1
    43    19    29    1
    44    19    46    1
    45    20    47    1
    46    20    48    1
    47    20    49    1
    48    21    25    1
    49    21    50    1
    50    21    51    1
    51    22    25    1
    52    22    30    1
    53    22    33    1
    54    23    52    1
    55    23    53    1
    56    23    54    1
    57    24    55    1
    58    24    56    1
    59    24    57    1
    60    25    58    1
    61    25    59    1
    62    26    28    1
    63    26    60    1
    64    27    61    1
    65    27    62    1
    66    27    63    1
    67    28    66    1
    68    29    31    1
    69    29    64    1
    70    29    65    1
    71    30    32    1
    72    30    67    1
    73    30    68    1
    74    31    32    1
    75    31    34    1
    76    31    35    1
    77    32    69    1
    78    32    70    1
    79    34    73    1
    80    34    77    1
    81    34    78    1
    82    35    74    1
    83    35    75    1
    84    35    76    1
