@<TRIPOS>MOLECULE
IMPHY005997
 37 39 0 0 0
SMALL
GASTEIGER

@<TRIPOS>ATOM
      1 O           8.1465    2.0346    0.0000 O.3     1  UNL1       -0.5019
      2 O           6.3981   -2.0000    0.0000 O.2     1  UNL1       -0.2864
      3 O           9.9282    1.0241    0.0000 O.3     1  UNL1       -0.4914
      4 O           4.6497   -2.0346    0.0000 O.3     1  UNL1       -0.5059
      5 O           2.8680    1.0241    0.0000 O.3     1  UNL1       -0.4949
      6 N           6.3981    1.0000    0.0000 N.ar    1  UNL1       -0.3396
      7 C           7.2641    0.5000    0.0000 C.ar    1  UNL1        0.0986
      8 C           5.5320    0.5000    0.0000 C.ar    1  UNL1        0.0600
      9 C           5.5320   -0.5000    0.0000 C.ar    1  UNL1        0.0873
     10 C           7.2641   -0.5000    0.0000 C.ar    1  UNL1        0.0497
     11 C           6.3981   -1.0000    0.0000 C.ar    1  UNL1        0.2007
     12 C           8.1580    1.0347    0.0000 C.ar    1  UNL1        0.1832
     13 C           4.6381    1.0347    0.0000 C.ar    1  UNL1        0.0045
     14 C           4.6381   -1.0347    0.0000 C.ar    1  UNL1        0.1331
     15 C           6.3981    2.0000    0.0000 C.3     1  UNL1        0.0125
     16 C           8.1580   -1.0347    0.0000 C.ar    1  UNL1       -0.0452
     17 C           9.0641    0.5208    0.0000 C.ar    1  UNL1        0.1634
     18 C           3.7320    0.5208    0.0000 C.ar    1  UNL1        0.1256
     19 C           3.7320   -0.5208    0.0000 C.ar    1  UNL1        0.0224
     20 C           9.0641   -0.5208    0.0000 C.ar    1  UNL1       -0.0155
     21 C          10.7961    0.5275    0.0000 C.3     1  UNL1        0.0790
     22 C           2.0000    0.5275    0.0000 C.3     1  UNL1        0.0788
     23 H           4.6453    1.6546    0.0000 H       1  UNL1        0.0675
     24 H           7.0181    2.0000    0.0000 H       1  UNL1        0.0456
     25 H           6.3981    2.6200    0.0000 H       1  UNL1        0.0456
     26 H           5.7781    2.0000    0.0000 H       1  UNL1        0.0456
     27 H           8.1509   -1.6546    0.0000 H       1  UNL1        0.0626
     28 H           3.1963   -0.8329    0.0000 H       1  UNL1        0.0691
     29 H           9.5998   -0.8329    0.0000 H       1  UNL1        0.0655
     30 H           8.6798    2.3508    0.0000 H       1  UNL1        0.2924
     31 H           4.1164   -2.3508    0.0000 H       1  UNL1        0.2922
     32 H          10.4882   -0.0106    0.0000 H       1  UNL1        0.0660
     33 H          11.3343    0.2196    0.0000 H       1  UNL1        0.0660
     34 H          11.1041    1.0656    0.0000 H       1  UNL1        0.0660
     35 H           1.6921    1.0656    0.0000 H       1  UNL1        0.0660
     36 H           1.4619    0.2196    0.0000 H       1  UNL1        0.0660
     37 H           2.3079   -0.0106    0.0000 H       1  UNL1        0.0660
@<TRIPOS>BOND
     1     1    12    1
     2     1    30    1
     3     2    11    2
     4     3    17    1
     5     3    21    1
     6     4    14    1
     7     4    31    1
     8     5    18    1
     9     5    22    1
    10     6     7   ar
    11     6     8   ar
    12     6    15    1
    13     7    10   ar
    14     7    12   ar
    15     8     9   ar
    16     8    13   ar
    17     9    11   ar
    18     9    14   ar
    19    10    11   ar
    20    10    16   ar
    21    12    17   ar
    22    13    18   ar
    23    13    23    1
    24    14    19   ar
    25    15    24    1
    26    15    25    1
    27    15    26    1
    28    16    20   ar
    29    16    27    1
    30    17    20   ar
    31    18    19   ar
    32    19    28    1
    33    20    29    1
    34    21    32    1
    35    21    33    1
    36    21    34    1
    37    22    35    1
    38    22    36    1
    39    22    37    1
