@<TRIPOS>MOLECULE
IMPHY015606
 22 23 0 0 0
SMALL
GASTEIGER

@<TRIPOS>ATOM
      1 O           2.2788   -1.8800    0.0000 O.2     1  UNL1       -0.2924
      2 C           3.5388    0.3800    0.0000 C.3     1  UNL1        0.0020
      3 C           3.5388   -0.6200    0.0000 C.3     1  UNL1        0.0316
      4 C           4.4054   -0.1200    0.0000 C.3     1  UNL1       -0.0324
      5 C           3.5388    1.3800    0.0000 C.3     1  UNL1       -0.0369
      6 C           2.5878    0.6891    0.0000 C.2     1  UNL1       -0.0736
      7 C           2.5878   -0.9290    0.0000 C.2     1  UNL1        0.1597
      8 C           2.0000   -0.1200    0.0000 C.2     1  UNL1       -0.0223
      9 C           4.4049    1.8800    0.0000 C.3     1  UNL1       -0.0619
     10 C           2.6728    1.8800    0.0000 C.3     1  UNL1       -0.0619
     11 H           3.7910   -1.1864    0.0000 H       1  UNL1        0.0389
     12 H           4.8039   -0.5949    0.0000 H       1  UNL1        0.0281
     13 H           4.8039    0.3550    0.0000 H       1  UNL1        0.0281
     14 H           3.5388    2.0000    0.0000 H       1  UNL1        0.0304
     15 H           2.3962    1.2787    0.0000 H       1  UNL1        0.0579
     16 H           1.3800   -0.1200    0.0000 H       1  UNL1        0.0649
     17 H           4.7149    1.3431    0.0000 H       1  UNL1        0.0233
     18 H           4.9418    2.1900    0.0000 H       1  UNL1        0.0233
     19 H           4.0949    2.4170    0.0000 H       1  UNL1        0.0233
     20 H           2.9828    2.4170    0.0000 H       1  UNL1        0.0233
     21 H           2.1359    2.1900    0.0000 H       1  UNL1        0.0233
     22 H           2.3628    1.3431    0.0000 H       1  UNL1        0.0233
@<TRIPOS>BOND
     1     1     7    2
     2     2     3    1
     3     2     4    1
     4     2     5    1
     5     2     6    1
     6     3     4    1
     7     3     7    1
     8     3    11    1
     9     4    12    1
    10     4    13    1
    11     5     9    1
    12     5    10    1
    13     5    14    1
    14     6     8    2
    15     6    15    1
    16     7     8    1
    17     8    16    1
    18     9    17    1
    19     9    18    1
    20     9    19    1
    21    10    20    1
    22    10    21    1
    23    10    22    1
