@<TRIPOS>MOLECULE
IMPHY003051
 20 20 0 0 0
SMALL
GASTEIGER

@<TRIPOS>ATOM
      1 O           3.4600    1.2239    0.0000 O.2     1  UNL1       -0.3161
      2 O           2.5369   -2.3639    0.0000 O.3     1  UNL1       -0.4795
      3 O           6.0291    0.9148    0.0000 O.2     1  UNL1       -0.2436
      4 OXT         4.2690   -2.3639    0.0000 O.2     1  UNL1       -0.2492
      5 O           3.1812    2.9839    0.0000 O.2     1  UNL1       -0.2209
      6 N           4.2690    0.6361    0.0000 N.ar    1  UNL1       -0.1488
      7 N           2.5369   -0.3639    0.0000 N.3     1  UNL1       -0.3169
      8 N           4.7690    2.1749    0.0000 N.ar    1  UNL1       -0.2398
      9 C           4.2690   -0.3639    0.0000 C.3     1  UNL1        0.0872
     10 CA          3.4030   -0.8639    0.0000 C.3     1  UNL1        0.1244
     11 C           5.0780    1.2239    0.0000 C.ar    1  UNL1        0.3606
     12 C           3.4030   -1.8639    0.0000 C.2     1  UNL1        0.3236
     13 C           3.7690    2.1749    0.0000 C.ar    1  UNL1        0.4409
     14 H           4.4810   -0.9465    0.0000 H       1  UNL1        0.0545
     15 H           4.8796   -0.2563    0.0000 H       1  UNL1        0.0545
     16 HA          3.4030   -0.2439    0.0000 H       1  UNL1        0.0593
     17 H1          2.0000   -0.6739    0.0000 H       1  UNL1        0.1190
     18 H2          2.5369    0.2561    0.0000 H       1  UNL1        0.1190
     19 H           5.1334    2.6765    0.0000 H       1  UNL1        0.1767
     20 H           2.5369   -2.9839    0.0000 H       1  UNL1        0.2951
@<TRIPOS>BOND
     1     1     6   ar
     2     1    13   ar
     3     2    12    1
     4     2    20    1
     5     3    11    2
     6     4    12    2
     7     5    13    2
     8     6     9    1
     9     6    11   ar
    10    10     7    1
    11     7    17    1
    12     7    18    1
    13     8    11   ar
    14     8    13   ar
    15     8    19    1
    16     9    10    1
    17     9    14    1
    18     9    15    1
    19    10    12    1
    20    10    16    1
