@<TRIPOS>MOLECULE
IMPHY007582
 159 158 0 0 0
SMALL
GASTEIGER

@<TRIPOS>ATOM
      1 O          15.8564    1.5600    0.0000 O.3     1  UNL1       -0.4608
      2 O          18.4545    2.0600    0.0000 O.3     1  UNL1       -0.4544
      3 O          16.7224    0.0600    0.0000 O.3     1  UNL1       -0.4608
      4 O          14.9904    3.0600    0.0000 O.2     1  UNL1       -0.2509
      5 O          19.3205    0.5600    0.0000 O.2     1  UNL1       -0.2508
      6 O          17.5885   -1.4400    0.0000 O.2     1  UNL1       -0.2509
      7 C           8.0622    2.0600    0.0000 C.3     1  UNL1       -0.0531
      8 C           8.9282    1.5600    0.0000 C.3     1  UNL1       -0.0531
      9 C           7.1962    1.5600    0.0000 C.3     1  UNL1       -0.0531
     10 C           9.7942    2.0600    0.0000 C.3     1  UNL1       -0.0531
     11 C           6.3301    2.0600    0.0000 C.3     1  UNL1       -0.0531
     12 C          10.6603    1.5600    0.0000 C.3     1  UNL1       -0.0531
     13 C           5.4641    1.5600    0.0000 C.3     1  UNL1       -0.0531
     14 C          11.5263    2.0600    0.0000 C.3     1  UNL1       -0.0530
     15 C           4.5981    2.0600    0.0000 C.3     1  UNL1       -0.0531
     16 C          12.3923    1.5600    0.0000 C.3     1  UNL1       -0.0526
     17 C           3.7320    1.5600    0.0000 C.3     1  UNL1       -0.0533
     18 C          13.2583    2.0600    0.0000 C.3     1  UNL1       -0.0430
     19 C           2.8660    2.0600    0.0000 C.3     1  UNL1       -0.0559
     20 C          14.1244    1.5600    0.0000 C.3     1  UNL1        0.0449
     21 C           2.0000    1.5600    0.0000 C.3     1  UNL1       -0.0653
     22 C          14.9904    2.0600    0.0000 C.2     1  UNL1        0.3072
     23 C          22.7846    1.5600    0.0000 C.3     1  UNL1       -0.0530
     24 C          21.9186    2.0600    0.0000 C.3     1  UNL1       -0.0526
     25 C          23.6506    2.0600    0.0000 C.3     1  UNL1       -0.0528
     26 C          14.9904   -3.9400    0.0000 C.3     1  UNL1       -0.0530
     27 C          14.9904   -2.9400    0.0000 C.3     1  UNL1       -0.0526
     28 C          21.0526    1.5600    0.0000 C.3     1  UNL1       -0.0430
     29 C          14.1244   -4.4400    0.0000 C.3     1  UNL1       -0.0528
     30 C          17.5885    1.5600    0.0000 C.3     1  UNL1        0.1706
     31 C          15.8564   -2.4400    0.0000 C.3     1  UNL1       -0.0430
     32 C          24.5167    1.5600    0.0000 C.3     1  UNL1       -0.0496
     33 C          16.7224    2.0600    0.0000 C.3     1  UNL1        0.1325
     34 C          14.1244   -5.4400    0.0000 C.3     1  UNL1       -0.0496
     35 C          20.1865    2.0600    0.0000 C.3     1  UNL1        0.0450
     36 C          15.8564   -1.4400    0.0000 C.3     1  UNL1        0.0449
     37 C          17.5885    0.5600    0.0000 C.3     1  UNL1        0.1325
     38 C          25.3827    2.0600    0.0000 C.3     1  UNL1       -0.0348
     39 C          13.2583   -5.9400    0.0000 C.3     1  UNL1       -0.0348
     40 C          19.3205    1.5600    0.0000 C.2     1  UNL1        0.3075
     41 C          16.7224   -0.9400    0.0000 C.2     1  UNL1        0.3072
     42 C          26.2487    1.5600    0.0000 C.2     1  UNL1       -0.0876
     43 C          13.2583   -6.9400    0.0000 C.2     1  UNL1       -0.0876
     44 C          27.1147    2.0600    0.0000 C.2     1  UNL1       -0.0842
     45 C          12.3923   -7.4400    0.0000 C.2     1  UNL1       -0.0842
     46 C          27.1147    3.0600    0.0000 C.3     1  UNL1       -0.0165
     47 C          11.5263   -6.9400    0.0000 C.3     1  UNL1       -0.0165
     48 C          27.1147    6.0600    0.0000 C.3     1  UNL1       -0.0496
     49 C           8.9282   -5.4400    0.0000 C.3     1  UNL1       -0.0496
     50 C          27.1147    5.0600    0.0000 C.3     1  UNL1       -0.0348
     51 C          27.9808    3.5600    0.0000 C.2     1  UNL1       -0.0842
     52 C           9.7942   -5.9400    0.0000 C.3     1  UNL1       -0.0348
     53 C          10.6603   -7.4400    0.0000 C.2     1  UNL1       -0.0842
     54 C          26.2487    6.5600    0.0000 C.3     1  UNL1       -0.0530
     55 C           8.9282   -4.4400    0.0000 C.3     1  UNL1       -0.0530
     56 C          27.9808    4.5600    0.0000 C.2     1  UNL1       -0.0876
     57 C           9.7942   -6.9400    0.0000 C.2     1  UNL1       -0.0876
     58 C          26.2487    7.5600    0.0000 C.3     1  UNL1       -0.0559
     59 C           8.0622   -3.9400    0.0000 C.3     1  UNL1       -0.0559
     60 C          25.3827    8.0600    0.0000 C.3     1  UNL1       -0.0653
     61 C           7.1962   -4.4400    0.0000 C.3     1  UNL1       -0.0653
     62 H           8.4607    2.5349    0.0000 H       1  UNL1        0.0265
     63 H           7.6636    2.5349    0.0000 H       1  UNL1        0.0265
     64 H           8.5297    1.0850    0.0000 H       1  UNL1        0.0265
     65 H           9.3267    1.0850    0.0000 H       1  UNL1        0.0265
     66 H           6.7976    1.0850    0.0000 H       1  UNL1        0.0265
     67 H           7.5947    1.0850    0.0000 H       1  UNL1        0.0265
     68 H          10.1928    2.5349    0.0000 H       1  UNL1        0.0265
     69 H           9.3957    2.5349    0.0000 H       1  UNL1        0.0265
     70 H           6.7287    2.5349    0.0000 H       1  UNL1        0.0265
     71 H           5.9316    2.5349    0.0000 H       1  UNL1        0.0265
     72 H          10.2617    1.0850    0.0000 H       1  UNL1        0.0265
     73 H          11.0588    1.0850    0.0000 H       1  UNL1        0.0265
     74 H           5.0656    1.0850    0.0000 H       1  UNL1        0.0265
     75 H           5.8626    1.0850    0.0000 H       1  UNL1        0.0265
     76 H          11.9248    2.5349    0.0000 H       1  UNL1        0.0265
     77 H          11.1278    2.5349    0.0000 H       1  UNL1        0.0265
     78 H           4.9966    2.5349    0.0000 H       1  UNL1        0.0265
     79 H           4.1996    2.5349    0.0000 H       1  UNL1        0.0265
     80 H          11.9938    1.0850    0.0000 H       1  UNL1        0.0265
     81 H          12.7908    1.0850    0.0000 H       1  UNL1        0.0265
     82 H           3.3335    1.0850    0.0000 H       1  UNL1        0.0265
     83 H           4.1306    1.0850    0.0000 H       1  UNL1        0.0265
     84 H          13.6569    2.5349    0.0000 H       1  UNL1        0.0270
     85 H          12.8598    2.5349    0.0000 H       1  UNL1        0.0270
     86 H           3.2646    2.5349    0.0000 H       1  UNL1        0.0263
     87 H           2.4675    2.5349    0.0000 H       1  UNL1        0.0263
     88 H          13.7258    1.0850    0.0000 H       1  UNL1        0.0377
     89 H          14.5229    1.0850    0.0000 H       1  UNL1        0.0377
     90 H           1.6900    2.0969    0.0000 H       1  UNL1        0.0230
     91 H           1.4631    1.2500    0.0000 H       1  UNL1        0.0230
     92 H           2.3100    1.0231    0.0000 H       1  UNL1        0.0230
     93 H          22.3861    1.0850    0.0000 H       1  UNL1        0.0265
     94 H          23.1831    1.0850    0.0000 H       1  UNL1        0.0265
     95 H          22.3171    2.5349    0.0000 H       1  UNL1        0.0265
     96 H          21.5201    2.5349    0.0000 H       1  UNL1        0.0265
     97 H          24.0492    2.5349    0.0000 H       1  UNL1        0.0265
     98 H          23.2521    2.5349    0.0000 H       1  UNL1        0.0265
     99 H          15.2024   -4.5226    0.0000 H       1  UNL1        0.0265
    100 H          15.6010   -3.8323    0.0000 H       1  UNL1        0.0265
    101 H          14.7783   -2.3574    0.0000 H       1  UNL1        0.0265
    102 H          14.3798   -3.0477    0.0000 H       1  UNL1        0.0265
    103 H          20.6540    1.0850    0.0000 H       1  UNL1        0.0270
    104 H          21.4511    1.0850    0.0000 H       1  UNL1        0.0270
    105 H          13.9123   -3.8574    0.0000 H       1  UNL1        0.0265
    106 H          13.5138   -4.5477    0.0000 H       1  UNL1        0.0265
    107 H          17.5885    2.1800    0.0000 H       1  UNL1        0.0803
    108 H          16.0685   -3.0226    0.0000 H       1  UNL1        0.0270
    109 H          16.4670   -2.3323    0.0000 H       1  UNL1        0.0270
    110 H          24.1181    1.0850    0.0000 H       1  UNL1        0.0268
    111 H          24.9152    1.0850    0.0000 H       1  UNL1        0.0268
    112 H          17.1210    2.5349    0.0000 H       1  UNL1        0.0736
    113 H          16.3239    2.5349    0.0000 H       1  UNL1        0.0736
    114 H          14.3364   -6.0226    0.0000 H       1  UNL1        0.0268
    115 H          14.7349   -5.3323    0.0000 H       1  UNL1        0.0268
    116 H          20.5851    2.5349    0.0000 H       1  UNL1        0.0377
    117 H          19.7880    2.5349    0.0000 H       1  UNL1        0.0377
    118 H          15.6444   -0.8574    0.0000 H       1  UNL1        0.0377
    119 H          15.2458   -1.5477    0.0000 H       1  UNL1        0.0377
    120 H          17.8005   -0.0226    0.0000 H       1  UNL1        0.0736
    121 H          18.1990    0.6677    0.0000 H       1  UNL1        0.0736
    122 H          25.7812    2.5349    0.0000 H       1  UNL1        0.0307
    123 H          24.9842    2.5349    0.0000 H       1  UNL1        0.0307
    124 H          13.0463   -5.3574    0.0000 H       1  UNL1        0.0307
    125 H          12.6477   -6.0477    0.0000 H       1  UNL1        0.0307
    126 H          26.2487    0.9400    0.0000 H       1  UNL1        0.0569
    127 H          13.7953   -7.2500    0.0000 H       1  UNL1        0.0569
    128 H          27.6517    1.7500    0.0000 H       1  UNL1        0.0572
    129 H          12.3923   -8.0600    0.0000 H       1  UNL1        0.0572
    130 H          26.9027    3.6426    0.0000 H       1  UNL1        0.0350
    131 H          26.5042    2.9523    0.0000 H       1  UNL1        0.0350
    132 H          11.9248   -6.4650    0.0000 H       1  UNL1        0.0350
    133 H          11.1278   -6.4650    0.0000 H       1  UNL1        0.0350
    134 H          27.7253    5.9523    0.0000 H       1  UNL1        0.0268
    135 H          27.3268    6.6426    0.0000 H       1  UNL1        0.0268
    136 H           8.3176   -5.3323    0.0000 H       1  UNL1        0.0268
    137 H           8.7162   -6.0226    0.0000 H       1  UNL1        0.0268
    138 H          26.5042    5.1677    0.0000 H       1  UNL1        0.0307
    139 H          26.9027    4.4774    0.0000 H       1  UNL1        0.0307
    140 H          28.5177    3.2500    0.0000 H       1  UNL1        0.0572
    141 H          10.4048   -6.0477    0.0000 H       1  UNL1        0.0307
    142 H          10.0063   -5.3574    0.0000 H       1  UNL1        0.0307
    143 H          25.6381    6.6677    0.0000 H       1  UNL1        0.0265
    144 H          26.0367    5.9774    0.0000 H       1  UNL1        0.0265
    145 H          10.6603   -8.0600    0.0000 H       1  UNL1        0.0572
    146 H           9.5388   -4.5477    0.0000 H       1  UNL1        0.0265
    147 H           9.1403   -3.8574    0.0000 H       1  UNL1        0.0265
    148 H          28.5177    4.8700    0.0000 H       1  UNL1        0.0569
    149 H           9.2573   -7.2500    0.0000 H       1  UNL1        0.0569
    150 H          26.8593    7.4523    0.0000 H       1  UNL1        0.0263
    151 H          26.4608    8.1426    0.0000 H       1  UNL1        0.0263
    152 H           8.4607   -3.4650    0.0000 H       1  UNL1        0.0263
    153 H           7.6636   -3.4650    0.0000 H       1  UNL1        0.0263
    154 H          25.6927    8.5969    0.0000 H       1  UNL1        0.0230
    155 H          24.8458    8.3700    0.0000 H       1  UNL1        0.0230
    156 H          25.0727    7.5231    0.0000 H       1  UNL1        0.0230
    157 H           6.8862   -3.9031    0.0000 H       1  UNL1        0.0230
    158 H           6.6592   -4.7500    0.0000 H       1  UNL1        0.0230
    159 H           7.5062   -4.9769    0.0000 H       1  UNL1        0.0230
@<TRIPOS>BOND
     1     1    22    1
     2     1    33    1
     3     2    30    1
     4     2    40    1
     5     3    37    1
     6     3    41    1
     7     4    22    2
     8     5    40    2
     9     6    41    2
    10     7     8    1
    11     7     9    1
    12     7    62    1
    13     7    63    1
    14     8    10    1
    15     8    64    1
    16     8    65    1
    17     9    11    1
    18     9    66    1
    19     9    67    1
    20    10    12    1
    21    10    68    1
    22    10    69    1
    23    11    13    1
    24    11    70    1
    25    11    71    1
    26    12    14    1
    27    12    72    1
    28    12    73    1
    29    13    15    1
    30    13    74    1
    31    13    75    1
    32    14    16    1
    33    14    76    1
    34    14    77    1
    35    15    17    1
    36    15    78    1
    37    15    79    1
    38    16    18    1
    39    16    80    1
    40    16    81    1
    41    17    19    1
    42    17    82    1
    43    17    83    1
    44    18    20    1
    45    18    84    1
    46    18    85    1
    47    19    21    1
    48    19    86    1
    49    19    87    1
    50    20    22    1
    51    20    88    1
    52    20    89    1
    53    21    90    1
    54    21    91    1
    55    21    92    1
    56    23    24    1
    57    23    25    1
    58    23    93    1
    59    23    94    1
    60    24    28    1
    61    24    95    1
    62    24    96    1
    63    25    32    1
    64    25    97    1
    65    25    98    1
    66    26    27    1
    67    26    29    1
    68    26    99    1
    69    26   100    1
    70    27    31    1
    71    27   101    1
    72    27   102    1
    73    28    35    1
    74    28   103    1
    75    28   104    1
    76    29    34    1
    77    29   105    1
    78    29   106    1
    79    30    33    1
    80    30    37    1
    81    30   107    1
    82    31    36    1
    83    31   108    1
    84    31   109    1
    85    32    38    1
    86    32   110    1
    87    32   111    1
    88    33   112    1
    89    33   113    1
    90    34    39    1
    91    34   114    1
    92    34   115    1
    93    35    40    1
    94    35   116    1
    95    35   117    1
    96    36    41    1
    97    36   118    1
    98    36   119    1
    99    37   120    1
   100    37   121    1
   101    38    42    1
   102    38   122    1
   103    38   123    1
   104    39    43    1
   105    39   124    1
   106    39   125    1
   107    42    44    2
   108    42   126    1
   109    43    45    2
   110    43   127    1
   111    44    46    1
   112    44   128    1
   113    45    47    1
   114    45   129    1
   115    46    51    1
   116    46   130    1
   117    46   131    1
   118    47    53    1
   119    47   132    1
   120    47   133    1
   121    48    50    1
   122    48    54    1
   123    48   134    1
   124    48   135    1
   125    49    52    1
   126    49    55    1
   127    49   136    1
   128    49   137    1
   129    50    56    1
   130    50   138    1
   131    50   139    1
   132    51    56    2
   133    51   140    1
   134    52    57    1
   135    52   141    1
   136    52   142    1
   137    53    57    2
   138    53   145    1
   139    54    58    1
   140    54   143    1
   141    54   144    1
   142    55    59    1
   143    55   146    1
   144    55   147    1
   145    56   148    1
   146    57   149    1
   147    58    60    1
   148    58   150    1
   149    58   151    1
   150    59    61    1
   151    59   152    1
   152    59   153    1
   153    60   154    1
   154    60   155    1
   155    60   156    1
   156    61   157    1
   157    61   158    1
   158    61   159    1
