@<TRIPOS>MOLECULE
IMPHY014201
 45 50 0 0 0
SMALL
GASTEIGER

@<TRIPOS>ATOM
      1 O           6.1432    0.0504    0.0000 O.3     1  UNL1       -0.3748
      2 O           3.7936   -0.9510    0.0000 O.2     1  UNL1       -0.2746
      3 O           4.4884   -1.2368    0.0000 O.2     1  UNL1       -0.2744
      4 N           2.9827    0.9368    0.0000 N.am    1  UNL1       -0.3001
      5 N           5.7756   -1.9799    0.0000 N.am    1  UNL1       -0.2844
      6 C           5.4096    0.0589    0.0000 C.3     1  UNL1        0.0161
      7 C           5.4096    1.0589    0.0000 C.3     1  UNL1        0.0740
      8 C           6.2756    1.5589    0.0000 C.3     1  UNL1       -0.0143
      9 C           4.7883    0.8410    0.0000 C.3     1  UNL1        0.0363
     10 C           5.2877    1.7059    0.0000 C.3     1  UNL1        0.0055
     11 C           6.2756   -0.4411    0.0000 C.3     1  UNL1        0.1055
     12 C           7.1416    0.0589    0.0000 C.3     1  UNL1        0.0773
     13 C           7.1416    1.0589    0.0000 C.3     1  UNL1       -0.0208
     14 C           4.2494   -0.0609    0.0000 C.2     1  UNL1        0.2262
     15 C           5.3968    0.7135    0.0000 C.3     1  UNL1        0.0529
     16 C           7.0846   -1.0289    0.0000 C.ar    1  UNL1       -0.0084
     17 C           5.7516    1.9986    0.0000 C.2     1  UNL1       -0.0757
     18 C           5.4666   -1.0289    0.0000 C.2     1  UNL1        0.2307
     19 C           2.0000    0.7517    0.0000 C.3     1  UNL1        0.0035
     20 C           6.7756   -1.9799    0.0000 C.ar    1  UNL1        0.0377
     21 C           8.1000   -0.7966    0.0000 C.ar    1  UNL1       -0.0557
     22 C           5.1088    2.7647    0.0000 C.2     1  UNL1       -0.1016
     23 C           7.4605   -2.7647    0.0000 C.ar    1  UNL1       -0.0402
     24 C           8.8029   -1.5653    0.0000 C.ar    1  UNL1       -0.0614
     25 C           8.4810   -2.5560    0.0000 C.ar    1  UNL1       -0.0600
     26 H           4.9847   -0.6773    0.0000 H       1  UNL1        0.0346
     27 H           7.0117    1.9839    0.0000 H       1  UNL1        0.0319
     28 H           3.9406    0.7782    0.0000 H       1  UNL1        0.0507
     29 H           4.5849    2.1841    0.0000 H       1  UNL1        0.0344
     30 H           7.8777    0.4839    0.0000 H       1  UNL1        0.0610
     31 H           7.7522    0.9513    0.0000 H       1  UNL1        0.0294
     32 H           7.3536    1.6415    0.0000 H       1  UNL1        0.0294
     33 H           4.7857    0.8178    0.0000 H       1  UNL1        0.0563
     34 H           5.1284    0.1546    0.0000 H       1  UNL1        0.0563
     35 H           6.3622    2.1063    0.0000 H       1  UNL1        0.0577
     36 H           1.8852    1.3610    0.0000 H       1  UNL1        0.0429
     37 H           1.3907    0.6370    0.0000 H       1  UNL1        0.0429
     38 H           2.1148    0.1424    0.0000 H       1  UNL1        0.0429
     39 H           5.4112   -2.4815    0.0000 H       1  UNL1        0.1548
     40 H           8.2848   -0.2048    0.0000 H       1  UNL1        0.0621
     41 H           5.3208    3.3473    0.0000 H       1  UNL1        0.0532
     42 H           4.4982    2.6570    0.0000 H       1  UNL1        0.0532
     43 H           7.2622   -3.3521    0.0000 H       1  UNL1        0.0636
     44 H           9.4089   -1.4341    0.0000 H       1  UNL1        0.0618
     45 H           8.8941   -3.0183    0.0000 H       1  UNL1        0.0618
@<TRIPOS>BOND
     1     1    12    1
     2     1    15    1
     3     2    14    2
     4     3    18    2
     5     4     9    1
     6     4    14   am
     7     4    19    1
     8     5    18   am
     9     5    20    1
    10     5    39    1
    11     6     7    1
    12     6     9    1
    13     6    11    1
    14     6    26    1
    15     7     8    1
    16     7    14    1
    17     7    17    1
    18     8    10    1
    19     8    13    1
    20     8    27    1
    21     9    10    1
    22     9    28    1
    23    10    15    1
    24    10    29    1
    25    11    12    1
    26    11    16    1
    27    11    18    1
    28    12    13    1
    29    12    30    1
    30    13    31    1
    31    13    32    1
    32    15    33    1
    33    15    34    1
    34    16    20   ar
    35    16    21   ar
    36    17    22    2
    37    17    35    1
    38    19    36    1
    39    19    37    1
    40    19    38    1
    41    20    23   ar
    42    21    24   ar
    43    21    40    1
    44    22    41    1
    45    22    42    1
    46    23    25   ar
    47    23    43    1
    48    24    25   ar
    49    24    44    1
    50    25    45    1
