@<TRIPOS>MOLECULE
IMPHY002150
 69 72 0 0 0
SMALL
GASTEIGER

@<TRIPOS>ATOM
      1 O           6.8671   -0.6379    0.0000 O.3     1  UNL1       -0.3093
      2 O           6.0010    0.8621    0.0000 O.2     1  UNL1       -0.4699
      3 O           5.1350   -0.6379    0.0000 O.3     1  UNL1       -0.3404
      4 O           8.9900    3.1173    0.0000 O.3     1  UNL1       -0.3871
      5 O           6.8671   -2.6379    0.0000 O.3     1  UNL1       -0.3841
      6 O           9.9685   -0.5994    0.0000 O.3     1  UNL1       -0.4571
      7 O           5.1350   -3.6379    0.0000 O.3     1  UNL1       -0.3864
      8 O           3.4030   -2.6379    0.0000 O.3     1  UNL1       -0.3865
      9 O           6.0010    3.8621    0.0000 O.3     1  UNL1       -0.4773
     10 O           2.5369   -1.1379    0.0000 O.3     1  UNL1       -0.3924
     11 O           7.7331    3.8621    0.0000 O.2     1  UNL1       -0.2454
     12 O           9.6113   -2.2942    0.0000 O.2     1  UNL1       -0.2456
     13 O          15.4823   -3.5315    0.0000 O.3     1  UNL1       -0.4951
     14 C           7.7331    0.8621    0.0000 C.3     1  UNL1        0.0557
     15 C           7.7331    1.8621    0.0000 C.3     1  UNL1        0.0357
     16 C           6.8671    0.3621    0.0000 C.3     1  UNL1        0.2107
     17 C           8.6793    2.1668    0.0000 C.3     1  UNL1        0.0816
     18 C           8.6793    0.5573    0.0000 C.2     1  UNL1       -0.0244
     19 C           9.2629    1.3621    0.0000 C.2     1  UNL1       -0.0524
     20 C           6.8671    2.3621    0.0000 C.2     1  UNL1        0.0772
     21 C           6.0010   -1.1379    0.0000 C.3     1  UNL1        0.1918
     22 C           6.0010   -2.1379    0.0000 C.3     1  UNL1        0.1342
     23 C           5.1350   -2.6379    0.0000 C.3     1  UNL1        0.1141
     24 C           4.2690   -2.1379    0.0000 C.3     1  UNL1        0.1119
     25 C           8.9900   -0.3932    0.0000 C.3     1  UNL1        0.1145
     26 C           4.2690   -1.1379    0.0000 C.3     1  UNL1        0.1130
     27 C           6.0010    1.8621    0.0000 C.2     1  UNL1        0.0982
     28 C           6.8671    3.3621    0.0000 C.2     1  UNL1        0.3361
     29 C           3.4030   -0.6379    0.0000 C.3     1  UNL1        0.0730
     30 C          10.2791   -1.5499    0.0000 C.2     1  UNL1        0.3323
     31 C          11.2576   -1.7562    0.0000 C.2     1  UNL1        0.0231
     32 C          11.5683   -2.7067    0.0000 C.2     1  UNL1       -0.0478
     33 C          12.5468   -2.9129    0.0000 C.ar    1  UNL1       -0.0246
     34 C          12.8575   -3.8634    0.0000 C.ar    1  UNL1       -0.0511
     35 C          13.2147   -2.1686    0.0000 C.ar    1  UNL1       -0.0511
     36 C          13.8360   -4.0696    0.0000 C.ar    1  UNL1       -0.0194
     37 C          14.1932   -2.3748    0.0000 C.ar    1  UNL1       -0.0194
     38 C          14.5038   -3.3253    0.0000 C.ar    1  UNL1        0.1201
     39 C          15.7930   -4.4821    0.0000 C.3     1  UNL1        0.0788
     40 H           7.8230    0.0168    0.0000 H       1  UNL1        0.0414
     41 H           7.8230    2.7073    0.0000 H       1  UNL1        0.0388
     42 H           7.4040    0.0521    0.0000 H       1  UNL1        0.1062
     43 H           8.2418    2.6062    0.0000 H       1  UNL1        0.0644
     44 H           9.8829    1.3621    0.0000 H       1  UNL1        0.0598
     45 H           6.0010   -0.5179    0.0000 H       1  UNL1        0.0939
     46 H           6.0010   -2.7579    0.0000 H       1  UNL1        0.0671
     47 H           4.5981   -2.9479    0.0000 H       1  UNL1        0.0648
     48 H           3.7320   -1.8279    0.0000 H       1  UNL1        0.0647
     49 H           8.3762   -0.4805    0.0000 H       1  UNL1        0.0746
     50 H           8.9694   -1.0128    0.0000 H       1  UNL1        0.0746
     51 H           4.2690   -0.5179    0.0000 H       1  UNL1        0.0647
     52 H           5.4641    2.1721    0.0000 H       1  UNL1        0.1029
     53 H           9.5966    3.2452    0.0000 H       1  UNL1        0.2102
     54 H           3.8015   -0.1630    0.0000 H       1  UNL1        0.0584
     55 H           3.0044   -0.1630    0.0000 H       1  UNL1        0.0584
     56 H           6.8671   -3.2579    0.0000 H       1  UNL1        0.2101
     57 H           4.5981   -3.9479    0.0000 H       1  UNL1        0.2100
     58 H           3.4030   -3.2579    0.0000 H       1  UNL1        0.2100
     59 H           6.0010    4.4821    0.0000 H       1  UNL1        0.2954
     60 H           2.0000   -0.8279    0.0000 H       1  UNL1        0.2095
     61 H          11.6717   -1.2947    0.0000 H       1  UNL1        0.0689
     62 H          11.1542   -3.1681    0.0000 H       1  UNL1        0.0626
     63 H          12.4434   -4.3249    0.0000 H       1  UNL1        0.0625
     64 H          13.0220   -1.5793    0.0000 H       1  UNL1        0.0625
     65 H          14.0286   -4.6590    0.0000 H       1  UNL1        0.0654
     66 H          14.6072   -1.9133    0.0000 H       1  UNL1        0.0654
     67 H          15.2037   -4.6747    0.0000 H       1  UNL1        0.0660
     68 H          15.9856   -5.0714    0.0000 H       1  UNL1        0.0660
     69 H          16.3823   -4.2895    0.0000 H       1  UNL1        0.0660
@<TRIPOS>BOND
     1    16     1    1
     2    21     1    1
     3     2    16    1
     4     2    27    1
     5     3    21    1
     6     3    26    1
     7    17     4    1
     8     4    53    1
     9    22     5    1
    10     5    56    1
    11     6    25    1
    12     6    30    1
    13    23     7    1
    14     7    57    1
    15    24     8    1
    16     8    58    1
    17     9    28    1
    18     9    59    1
    19    10    29    1
    20    10    60    1
    21    11    28    2
    22    12    30    2
    23    13    38    1
    24    13    39    1
    25    14    15    1
    26    14    16    1
    27    14    18    1
    28    14    40    1
    29    15    17    1
    30    15    20    1
    31    15    41    1
    32    16    42    1
    33    17    19    1
    34    17    43    1
    35    18    19    2
    36    18    25    1
    37    19    44    1
    38    20    27    2
    39    20    28    1
    40    21    22    1
    41    21    45    1
    42    22    23    1
    43    22    46    1
    44    23    24    1
    45    23    47    1
    46    24    26    1
    47    24    48    1
    48    25    49    1
    49    25    50    1
    50    26    29    1
    51    26    51    1
    52    27    52    1
    53    29    54    1
    54    29    55    1
    55    30    31    1
    56    31    32    2
    57    31    61    1
    58    32    33    1
    59    32    62    1
    60    33    34   ar
    61    33    35   ar
    62    34    36   ar
    63    34    63    1
    64    35    37   ar
    65    35    64    1
    66    36    38   ar
    67    36    65    1
    68    37    38   ar
    69    37    66    1
    70    39    67    1
    71    39    68    1
    72    39    69    1
