@<TRIPOS>MOLECULE
IMPHY007598
 18 18 0 0 0
SMALL
GASTEIGER

@<TRIPOS>ATOM
      1 O           3.7320    2.0950    0.0000 O.3     1  UNL1       -0.4804
      2 O           4.5981    0.5950    0.0000 O.2     1  UNL1       -0.2507
      3 C           2.8660   -0.4050    0.0000 C.ar    1  UNL1       -0.0368
      4 C           2.8660    0.5950    0.0000 C.3     1  UNL1        0.0699
      5 C           2.0000   -0.9050    0.0000 C.ar    1  UNL1       -0.0581
      6 C           3.7320   -0.9050    0.0000 C.ar    1  UNL1       -0.0581
      7 C           2.0000   -1.9050    0.0000 C.ar    1  UNL1       -0.0615
      8 C           3.7320   -1.9050    0.0000 C.ar    1  UNL1       -0.0615
      9 C           2.8660   -2.4050    0.0000 C.ar    1  UNL1       -0.0617
     10 C           3.7320    1.0950    0.0000 C.2     1  UNL1        0.3091
     11 H           2.6540    1.1776    0.0000 H       1  UNL1        0.0426
     12 H           2.2554    0.4873    0.0000 H       1  UNL1        0.0426
     13 H           1.4631   -0.5950    0.0000 H       1  UNL1        0.0620
     14 H           4.2690   -0.5950    0.0000 H       1  UNL1        0.0620
     15 H           1.4631   -2.2150    0.0000 H       1  UNL1        0.0618
     16 H           4.2690   -2.2150    0.0000 H       1  UNL1        0.0618
     17 H           2.8660   -3.0250    0.0000 H       1  UNL1        0.0618
     18 H           4.2690    2.4050    0.0000 H       1  UNL1        0.2951
@<TRIPOS>BOND
     1     1    10    1
     2     1    18    1
     3     2    10    2
     4     3     4    1
     5     3     5   ar
     6     3     6   ar
     7     4    10    1
     8     4    11    1
     9     4    12    1
    10     5     7   ar
    11     5    13    1
    12     6     8   ar
    13     6    14    1
    14     7     9   ar
    15     7    15    1
    16     8     9   ar
    17     8    16    1
    18     9    17    1
