@<TRIPOS>MOLECULE
IMPHY004176
 81 85 0 0 0
SMALL
GASTEIGER

@<TRIPOS>ATOM
      1 O          10.1330    2.7805    0.0000 O.3     1  UNL1       -0.3912
      2 C           4.7931   -0.3639    0.0000 C.3     1  UNL1       -0.0196
      3 C           5.6591   -0.8639    0.0000 C.3     1  UNL1       -0.0051
      4 C           3.8831   -0.8708    0.0000 C.3     1  UNL1       -0.0289
      5 C           3.8751   -1.9124    0.0000 C.3     1  UNL1       -0.0235
      6 C           6.5251    0.6361    0.0000 C.3     1  UNL1       -0.0137
      7 C           7.4191    1.1707    0.0000 C.3     1  UNL1       -0.0218
      8 C           6.5251   -0.3639    0.0000 C.2     1  UNL1       -0.0634
      9 C           4.7931    0.6361    0.0000 C.3     1  UNL1       -0.0460
     10 C           5.6752   -1.9054    0.0000 C.3     1  UNL1       -0.0429
     11 C           2.9396   -2.4621    0.0000 C.3     1  UNL1       -0.0292
     12 C           4.7771   -2.4332    0.0000 C.3     1  UNL1       -0.0461
     13 C           5.6591    1.1361    0.0000 C.3     1  UNL1       -0.0455
     14 C           8.3252    0.6569    0.0000 C.3     1  UNL1       -0.0242
     15 C           2.9562   -0.3067    0.0000 C.3     1  UNL1       -0.0492
     16 C           3.9271    0.1361    0.0000 C.3     1  UNL1       -0.0585
     17 C           2.0000   -1.9196    0.0000 C.3     1  UNL1       -0.0474
     18 C           6.5251   -1.3639    0.0000 C.3     1  UNL1       -0.0553
     19 C           9.2689    1.1921    0.0000 C.3     1  UNL1       -0.0053
     20 C           7.3940    2.2554    0.0000 C.3     1  UNL1       -0.0444
     21 C           2.0084   -0.8346    0.0000 C.3     1  UNL1       -0.0523
     22 C           4.0412   -2.8985    0.0000 C.3     1  UNL1       -0.0588
     23 C           8.3252   -0.3847    0.0000 C.3     1  UNL1       -0.0306
     24 C           7.4191   -0.8986    0.0000 C.2     1  UNL1       -0.0836
     25 C           6.5492    1.6640    0.0000 C.3     1  UNL1       -0.0587
     26 C           9.2689    2.2771    0.0000 C.3     1  UNL1        0.0606
     27 C           8.3252    2.8124    0.0000 C.3     1  UNL1       -0.0258
     28 C           2.4430   -3.3300    0.0000 C.3     1  UNL1       -0.0593
     29 C           3.2853   -3.4005    0.0000 C.3     1  UNL1       -0.0593
     30 C          10.2689    1.1883    0.0000 C.3     1  UNL1       -0.0572
     31 C           9.7656    0.3242    0.0000 C.3     1  UNL1       -0.0572
     32 H           4.6142   -1.3042    0.0000 H       1  UNL1        0.0312
     33 H           7.2645    0.2168    0.0000 H       1  UNL1        0.0351
     34 H           4.5810    1.2187    0.0000 H       1  UNL1        0.0271
     35 H           4.1825    0.5284    0.0000 H       1  UNL1        0.0271
     36 H           5.8932   -2.4858    0.0000 H       1  UNL1        0.0274
     37 H           6.2843   -1.7899    0.0000 H       1  UNL1        0.0274
     38 H           4.3798   -2.9092    0.0000 H       1  UNL1        0.0271
     39 H           5.1781   -2.9061    0.0000 H       1  UNL1        0.0271
     40 H           6.0576    1.6110    0.0000 H       1  UNL1        0.0271
     41 H           5.2606    1.6110    0.0000 H       1  UNL1        0.0271
     42 H           9.0596    0.2291    0.0000 H       1  UNL1        0.0315
     43 H           3.3645    0.1600    0.0000 H       1  UNL1        0.0268
     44 H           2.5663    0.1754    0.0000 H       1  UNL1        0.0268
     45 H           4.2371    0.6730    0.0000 H       1  UNL1        0.0235
     46 H           3.3901    0.4461    0.0000 H       1  UNL1        0.0235
     47 H           3.6171   -0.4009    0.0000 H       1  UNL1        0.0235
     48 H           1.3900   -1.8088    0.0000 H       1  UNL1        0.0271
     49 H           1.7864   -2.5017    0.0000 H       1  UNL1        0.0271
     50 H           6.2151   -1.9009    0.0000 H       1  UNL1        0.0238
     51 H           7.0621   -1.6739    0.0000 H       1  UNL1        0.0238
     52 H           6.8351   -0.8270    0.0000 H       1  UNL1        0.0238
     53 H           7.1715    2.8342    0.0000 H       1  UNL1        0.0272
     54 H           6.7858    2.1353    0.0000 H       1  UNL1        0.0272
     55 H           1.8038   -0.2493    0.0000 H       1  UNL1        0.0266
     56 H           1.3967   -0.9360    0.0000 H       1  UNL1        0.0266
     57 H           3.4298   -3.0015    0.0000 H       1  UNL1        0.0235
     58 H           4.1442   -3.5098    0.0000 H       1  UNL1        0.0235
     59 H           4.6526   -2.7955    0.0000 H       1  UNL1        0.0235
     60 H           8.5342   -0.9684    0.0000 H       1  UNL1        0.0310
     61 H           8.9360   -0.2786    0.0000 H       1  UNL1        0.0310
     62 H           7.4119   -1.5185    0.0000 H       1  UNL1        0.0572
     63 H           6.8551    2.2034    0.0000 H       1  UNL1        0.0235
     64 H           6.0099    1.9699    0.0000 H       1  UNL1        0.0235
     65 H           6.2434    1.1247    0.0000 H       1  UNL1        0.0235
     66 H           9.2654    2.8971    0.0000 H       1  UNL1        0.0599
     67 H           8.7188    3.2914    0.0000 H       1  UNL1        0.0290
     68 H           7.9206    3.2822    0.0000 H       1  UNL1        0.0290
     69 H           2.7035   -3.6148    0.0000 H       1  UNL1        0.0235
     70 H           3.4996   -3.9822    0.0000 H       1  UNL1        0.0235
     71 H           3.8671   -3.1862    0.0000 H       1  UNL1        0.0235
     72 H           1.9048   -3.0221    0.0000 H       1  UNL1        0.0235
     73 H           2.1350   -3.8682    0.0000 H       1  UNL1        0.0235
     74 H           2.9811   -3.6380    0.0000 H       1  UNL1        0.0235
     75 H           9.2275    0.0163    0.0000 H       1  UNL1        0.0236
     76 H          10.0735   -0.2139    0.0000 H       1  UNL1        0.0236
     77 H          10.3037    0.6321    0.0000 H       1  UNL1        0.0236
     78 H          10.2665    0.5683    0.0000 H       1  UNL1        0.0236
     79 H          10.8889    1.1859    0.0000 H       1  UNL1        0.0236
     80 H          10.2713    1.8083    0.0000 H       1  UNL1        0.0236
     81 H          10.1306    3.4005    0.0000 H       1  UNL1        0.2098
@<TRIPOS>BOND
     1    26     1    1
     2     1    81    1
     3     2     3    1
     4     2     4    1
     5     2     9    1
     6     2    16    1
     7     3     8    1
     8     3    10    1
     9     3    18    1
    10     4     5    1
    11     4    15    1
    12     4    32    1
    13     5    11    1
    14     5    12    1
    15     5    22    1
    16     6     7    1
    17     6     8    1
    18     6    13    1
    19     6    33    1
    20     7    14    1
    21     7    20    1
    22     7    25    1
    23     8    24    2
    24     9    13    1
    25     9    34    1
    26     9    35    1
    27    10    12    1
    28    10    36    1
    29    10    37    1
    30    11    17    1
    31    11    28    1
    32    11    29    1
    33    12    38    1
    34    12    39    1
    35    13    40    1
    36    13    41    1
    37    14    19    1
    38    14    23    1
    39    14    42    1
    40    15    21    1
    41    15    43    1
    42    15    44    1
    43    16    45    1
    44    16    46    1
    45    16    47    1
    46    17    21    1
    47    17    48    1
    48    17    49    1
    49    18    50    1
    50    18    51    1
    51    18    52    1
    52    19    26    1
    53    19    30    1
    54    19    31    1
    55    20    27    1
    56    20    53    1
    57    20    54    1
    58    21    55    1
    59    21    56    1
    60    22    57    1
    61    22    58    1
    62    22    59    1
    63    23    24    1
    64    23    60    1
    65    23    61    1
    66    24    62    1
    67    25    63    1
    68    25    64    1
    69    25    65    1
    70    26    27    1
    71    26    66    1
    72    27    67    1
    73    27    68    1
    74    28    72    1
    75    28    73    1
    76    28    74    1
    77    29    69    1
    78    29    70    1
    79    29    71    1
    80    30    78    1
    81    30    79    1
    82    30    80    1
    83    31    75    1
    84    31    76    1
    85    31    77    1
