@<TRIPOS>MOLECULE
IMPHY001256
 69 74 0 0 0
SMALL
GASTEIGER

@<TRIPOS>ATOM
      1 O           6.0271   -1.7394    0.0000 O.3     1  UNL1       -0.3512
      2 O           8.7217   -2.2810    0.0000 O.3     1  UNL1       -0.4538
      3 O           6.0610    2.2919    0.0000 O.3     1  UNL1       -0.4639
      4 O           5.1893   -2.2672    0.0000 O.2     1  UNL1       -0.2967
      5 O           3.4573    1.8220    0.0000 O.3     1  UNL1       -0.3906
      6 O           7.8158   -3.8019    0.0000 O.2     1  UNL1       -0.2478
      7 O           2.5357   -0.7051    0.0000 O.3     1  UNL1       -0.3888
      8 O          11.1526   -0.3748    0.0000 O.3     1  UNL1       -0.4282
      9 O           5.2124    3.8019    0.0000 O.2     1  UNL1       -0.2508
     10 O          10.7113   -2.1013    0.0000 O.2     1  UNL1       -0.2451
     11 O          11.0387    1.4036    0.0000 O.3     1  UNL1       -0.3545
     12 C           6.9377   -1.2326    0.0000 C.3     1  UNL1        0.1283
     13 C           6.0716   -0.7326    0.0000 C.3     1  UNL1        0.0622
     14 C           7.8037   -0.7326    0.0000 C.3     1  UNL1        0.0423
     15 C           6.0716    0.2674    0.0000 C.3     1  UNL1       -0.0146
     16 C           6.9216   -2.2741    0.0000 C.3     1  UNL1        0.1861
     17 C           5.1777    0.8021    0.0000 C.3     1  UNL1        0.0409
     18 C           7.8037    0.2674    0.0000 C.3     1  UNL1       -0.0408
     19 C           6.9377    0.7674    0.0000 C.3     1  UNL1       -0.0478
     20 C           4.2716    0.2882    0.0000 C.3     1  UNL1        0.0054
     21 C           5.1777   -1.2673    0.0000 C.2     1  UNL1        0.1427
     22 C           8.7137   -1.2394    0.0000 C.3     1  UNL1        0.1427
     23 C           6.7218   -1.8584    0.0000 C.3     1  UNL1       -0.0498
     24 C           4.2716   -0.7534    0.0000 C.3     1  UNL1        0.0126
     25 C           4.3175    1.3120    0.0000 C.3     1  UNL1        0.0746
     26 C           8.6697   -0.2326    0.0000 C.3     1  UNL1       -0.0531
     27 C           6.0494    1.2920    0.0000 C.3     1  UNL1        0.1011
     28 C           7.8196   -2.8019    0.0000 C.2     1  UNL1        0.3398
     29 C           3.4037   -0.2084    0.0000 C.3     1  UNL1        0.0644
     30 C           9.5739   -0.7295    0.0000 C.2     1  UNL1        0.0792
     31 C           4.3291    2.3120    0.0000 C.3     1  UNL1        0.0715
     32 C           2.9070    0.6594    0.0000 C.3     1  UNL1       -0.0360
     33 C           3.3998   -1.2084    0.0000 C.3     1  UNL1       -0.0360
     34 C           5.2008    2.8019    0.0000 C.2     1  UNL1        0.3096
     35 C           9.6669    0.2662    0.0000 C.2     1  UNL1       -0.0030
     36 C          10.4921   -1.1256    0.0000 C.2     1  UNL1        0.3410
     37 C          10.6426    0.4854    0.0000 C.3     1  UNL1        0.2233
     38 H           6.8078   -0.1576    0.0000 H       1  UNL1        0.0318
     39 H           6.4882   -3.0053    0.0000 H       1  UNL1        0.0743
     40 H           8.4143    0.1597    0.0000 H       1  UNL1        0.0273
     41 H           8.0157    0.8500    0.0000 H       1  UNL1        0.0273
     42 H           7.3362    1.2423    0.0000 H       1  UNL1        0.0269
     43 H           6.5391    1.2423    0.0000 H       1  UNL1        0.0269
     44 H           3.8452   -0.4471    0.0000 H       1  UNL1        0.0340
     45 H           9.2536   -1.5443    0.0000 H       1  UNL1        0.0794
     46 H           6.1848   -2.1684    0.0000 H       1  UNL1        0.0240
     47 H           7.0318   -2.3953    0.0000 H       1  UNL1        0.0240
     48 H           7.2587   -1.5483    0.0000 H       1  UNL1        0.0240
     49 H           3.6608   -0.6473    0.0000 H       1  UNL1        0.0346
     50 H           4.0626   -1.3371    0.0000 H       1  UNL1        0.0346
     51 H           4.0013    0.7787    0.0000 H       1  UNL1        0.0605
     52 H           8.9797   -0.7695    0.0000 H       1  UNL1        0.0237
     53 H           9.2066    0.0774    0.0000 H       1  UNL1        0.0237
     54 H           8.3597    0.3043    0.0000 H       1  UNL1        0.0237
     55 H           6.2547    0.7070    0.0000 H       1  UNL1        0.0704
     56 H           6.6612    1.3926    0.0000 H       1  UNL1        0.0704
     57 H           4.1238    2.8970    0.0000 H       1  UNL1        0.0403
     58 H           3.7173    2.2114    0.0000 H       1  UNL1        0.0403
     59 H           2.7798   -1.2060    0.0000 H       1  UNL1        0.0257
     60 H           3.3974   -1.8284    0.0000 H       1  UNL1        0.0257
     61 H           4.0198   -1.2108    0.0000 H       1  UNL1        0.0257
     62 H           3.4451    0.9674    0.0000 H       1  UNL1        0.0257
     63 H           2.5990    1.1975    0.0000 H       1  UNL1        0.0257
     64 H           2.3689    0.3515    0.0000 H       1  UNL1        0.0257
     65 H           2.9168    1.5182    0.0000 H       1  UNL1        0.2098
     66 H           2.0000   -0.3930    0.0000 H       1  UNL1        0.2101
     67 H           9.2014    0.6757    0.0000 H       1  UNL1        0.0640
     68 H          10.2469    0.9627    0.0000 H       1  UNL1        0.1105
     69 H          11.6545    1.4755    0.0000 H       1  UNL1        0.2139
@<TRIPOS>BOND
     1    12     1    1
     2     1    16    1
     3     2    22    1
     4     2    28    1
     5     3    27    1
     6     3    34    1
     7     4    21    2
     8    25     5    1
     9     5    65    1
    10     6    28    2
    11     7    29    1
    12     7    66    1
    13     8    36    1
    14     8    37    1
    15     9    34    2
    16    10    36    2
    17    11    37    1
    18    11    69    1
    19    12    13    1
    20    12    14    1
    21    12    16    1
    22    13    15    1
    23    13    21    1
    24    13    23    1
    25    14    18    1
    26    14    22    1
    27    14    26    1
    28    15    17    1
    29    15    19    1
    30    15    38    1
    31    16    28    1
    32    16    39    1
    33    17    20    1
    34    17    25    1
    35    17    27    1
    36    18    19    1
    37    18    40    1
    38    18    41    1
    39    19    42    1
    40    19    43    1
    41    20    24    1
    42    20    29    1
    43    20    44    1
    44    21    24    1
    45    22    30    1
    46    22    45    1
    47    23    46    1
    48    23    47    1
    49    23    48    1
    50    24    49    1
    51    24    50    1
    52    25    31    1
    53    25    51    1
    54    26    52    1
    55    26    53    1
    56    26    54    1
    57    27    55    1
    58    27    56    1
    59    29    32    1
    60    29    33    1
    61    30    35    2
    62    30    36    1
    63    31    34    1
    64    31    57    1
    65    31    58    1
    66    32    62    1
    67    32    63    1
    68    32    64    1
    69    33    59    1
    70    33    60    1
    71    33    61    1
    72    35    37    1
    73    35    67    1
    74    37    68    1
