@<TRIPOS>MOLECULE
IMPHY015744
 33 33 0 0 0
SMALL
GASTEIGER

@<TRIPOS>ATOM
      1 O           8.0622   -1.6900    0.0000 O.3     1  UNL1       -0.3914
      2 O           2.8660    2.3100    0.0000 O.2     1  UNL1       -0.2833
      3 C           6.3301    0.3100    0.0000 C.3     1  UNL1        0.0003
      4 C           7.1962   -0.1900    0.0000 C.3     1  UNL1       -0.0168
      5 C           7.1962   -1.1900    0.0000 C.3     1  UNL1        0.0597
      6 C           5.4641   -0.1900    0.0000 C.2     1  UNL1        0.0077
      7 C           6.3301   -1.6900    0.0000 C.3     1  UNL1       -0.0047
      8 C           5.4641   -1.1900    0.0000 C.2     1  UNL1       -0.0583
      9 C           6.8301    1.1760    0.0000 C.3     1  UNL1       -0.0551
     10 C           5.8301    1.1760    0.0000 C.3     1  UNL1       -0.0551
     11 C           4.5981   -1.6900    0.0000 C.3     1  UNL1       -0.0425
     12 C           4.5981    0.3100    0.0000 C.1     1  UNL1       -0.0621
     13 C           3.7320    0.8100    0.0000 C.1     1  UNL1       -0.0239
     14 C           2.8660    1.3100    0.0000 C.2     1  UNL1        0.2029
     15 C           2.0000    0.8100    0.0000 C.3     1  UNL1        0.0064
     16 H           7.8067   -0.2977    0.0000 H       1  UNL1        0.0299
     17 H           7.4082    0.3926    0.0000 H       1  UNL1        0.0299
     18 H           7.7331   -0.8800    0.0000 H       1  UNL1        0.0596
     19 H           5.9316   -2.1650    0.0000 H       1  UNL1        0.0335
     20 H           6.7287   -2.1650    0.0000 H       1  UNL1        0.0335
     21 H           7.3671    0.8660    0.0000 H       1  UNL1        0.0238
     22 H           7.1401    1.7130    0.0000 H       1  UNL1        0.0238
     23 H           6.2932    1.4860    0.0000 H       1  UNL1        0.0238
     24 H           6.3671    1.4860    0.0000 H       1  UNL1        0.0238
     25 H           5.5201    1.7130    0.0000 H       1  UNL1        0.0238
     26 H           5.2932    0.8660    0.0000 H       1  UNL1        0.0238
     27 H           4.2881   -1.1531    0.0000 H       1  UNL1        0.0275
     28 H           4.0611   -2.0000    0.0000 H       1  UNL1        0.0275
     29 H           4.9081   -2.2269    0.0000 H       1  UNL1        0.0275
     30 H           8.0622   -2.3100    0.0000 H       1  UNL1        0.2098
     31 H           1.6900    1.3469    0.0000 H       1  UNL1        0.0316
     32 H           1.4631    0.5000    0.0000 H       1  UNL1        0.0316
     33 H           2.3100    0.2731    0.0000 H       1  UNL1        0.0316
@<TRIPOS>BOND
     1     1     5    1
     2     1    30    1
     3     2    14    2
     4     3     4    1
     5     3     6    1
     6     3     9    1
     7     3    10    1
     8     4     5    1
     9     4    16    1
    10     4    17    1
    11     5     7    1
    12     5    18    1
    13     6     8    2
    14     6    12    1
    15     7     8    1
    16     7    19    1
    17     7    20    1
    18     8    11    1
    19     9    21    1
    20     9    22    1
    21     9    23    1
    22    10    24    1
    23    10    25    1
    24    10    26    1
    25    11    27    1
    26    11    28    1
    27    11    29    1
    28    12    13    3
    29    13    14    1
    30    14    15    1
    31    15    31    1
    32    15    32    1
    33    15    33    1
