@<TRIPOS>MOLECULE
IMPHY009838
 39 40 0 0 0
SMALL
GASTEIGER

@<TRIPOS>ATOM
      1 C           5.1881    0.9983    0.0000 C.3     1  UNL1       -0.0074
      2 C           6.1408   -0.3017    0.0000 C.3     1  UNL1       -0.0170
      3 C           5.1931   -0.0017    0.0000 C.2     1  UNL1       -0.0636
      4 C           6.1328    1.3077    0.0000 C.3     1  UNL1       -0.0431
      5 C           6.7204    0.5059    0.0000 C.3     1  UNL1       -0.0455
      6 C           6.4562   -1.2507    0.0000 C.3     1  UNL1       -0.0402
      7 C           4.4032    1.6179    0.0000 C.3     1  UNL1       -0.0254
      8 C           5.1831    1.9983    0.0000 C.3     1  UNL1       -0.0556
      9 C           4.4144   -0.6291    0.0000 C.2     1  UNL1       -0.0800
     10 C           3.4294    1.3905    0.0000 C.2     1  UNL1       -0.0839
     11 C           3.4384   -0.4114    0.0000 C.3     1  UNL1       -0.0135
     12 C           7.4357   -1.4520    0.0000 C.3     1  UNL1       -0.0621
     13 C           5.7921   -1.9983    0.0000 C.3     1  UNL1       -0.0621
     14 C           3.0000    0.4874    0.0000 C.2     1  UNL1       -0.0728
     15 C           2.0000    0.4824    0.0000 C.3     1  UNL1       -0.0435
     16 H           6.7538   -0.3948    0.0000 H       1  UNL1        0.0348
     17 H           6.6686    1.6196    0.0000 H       1  UNL1        0.0274
     18 H           5.8789    1.8734    0.0000 H       1  UNL1        0.0274
     19 H           7.1833    0.0935    0.0000 H       1  UNL1        0.0271
     20 H           7.1792    0.9230    0.0000 H       1  UNL1        0.0271
     21 H           5.8489   -1.1258    0.0000 H       1  UNL1        0.0301
     22 H           4.8860    2.0069    0.0000 H       1  UNL1        0.0316
     23 H           4.1314    2.1751    0.0000 H       1  UNL1        0.0316
     24 H           5.8031    2.0014    0.0000 H       1  UNL1        0.0238
     25 H           5.1800    2.6183    0.0000 H       1  UNL1        0.0238
     26 H           4.5631    1.9952    0.0000 H       1  UNL1        0.0238
     27 H           4.5554   -1.2328    0.0000 H       1  UNL1        0.0575
     28 H           3.0404    1.8733    0.0000 H       1  UNL1        0.0572
     29 H           2.8346   -0.5524    0.0000 H       1  UNL1        0.0352
     30 H           3.4414   -1.0314    0.0000 H       1  UNL1        0.0352
     31 H           5.3286   -1.5865    0.0000 H       1  UNL1        0.0233
     32 H           5.3803   -2.4618    0.0000 H       1  UNL1        0.0233
     33 H           6.2556   -2.4100    0.0000 H       1  UNL1        0.0233
     34 H           7.3109   -2.0593    0.0000 H       1  UNL1        0.0233
     35 H           8.0430   -1.5768    0.0000 H       1  UNL1        0.0233
     36 H           7.5606   -0.8447    0.0000 H       1  UNL1        0.0233
     37 H           1.9969    1.1024    0.0000 H       1  UNL1        0.0274
     38 H           1.3800    0.4793    0.0000 H       1  UNL1        0.0274
     39 H           2.0031   -0.1376    0.0000 H       1  UNL1        0.0274
@<TRIPOS>BOND
     1     1     3    1
     2     1     4    1
     3     1     7    1
     4     1     8    1
     5     2     3    1
     6     2     5    1
     7     2     6    1
     8     2    16    1
     9     3     9    2
    10     4     5    1
    11     4    17    1
    12     4    18    1
    13     5    19    1
    14     5    20    1
    15     6    12    1
    16     6    13    1
    17     6    21    1
    18     7    10    1
    19     7    22    1
    20     7    23    1
    21     8    24    1
    22     8    25    1
    23     8    26    1
    24     9    11    1
    25     9    27    1
    26    10    14    2
    27    10    28    1
    28    11    14    1
    29    11    29    1
    30    11    30    1
    31    12    34    1
    32    12    35    1
    33    12    36    1
    34    13    31    1
    35    13    32    1
    36    13    33    1
    37    14    15    1
    38    15    37    1
    39    15    38    1
    40    15    39    1
