@<TRIPOS>MOLECULE
IMPHY001429
 40 43 0 0 0
SMALL
GASTEIGER

@<TRIPOS>ATOM
      1 O           8.0944    0.8757    0.0000 O.3     1  UNL1       -0.4877
      2 O           4.6660    0.6542    0.0000 O.2     1  UNL1       -0.4503
      3 O           6.4144   -2.3804    0.0000 O.3     1  UNL1       -0.5058
      4 O           4.6660   -2.3458    0.0000 O.2     1  UNL1       -0.2861
      5 O           2.9176    1.6888    0.0000 O.3     1  UNL1       -0.5033
      6 O           2.9176   -2.3804    0.0000 O.3     1  UNL1       -0.5059
      7 C           6.6361    1.7027    0.0000 C.3     1  UNL1        0.0337
      8 C           7.6651    1.8180    0.0000 C.3     1  UNL1        0.1067
      9 C           6.4260    0.6888    0.0000 C.ar    1  UNL1        0.0465
     10 C           7.3321    0.1750    0.0000 C.ar    1  UNL1        0.1317
     11 C           6.5256    2.6966    0.0000 C.3     1  UNL1       -0.0522
     12 C           5.6567    1.9048    0.0000 C.3     1  UNL1       -0.0522
     13 C           5.5321    0.1542    0.0000 C.ar    1  UNL1        0.1502
     14 C           8.1584    2.6879    0.0000 C.3     1  UNL1       -0.0270
     15 C           5.5321   -0.8458    0.0000 C.ar    1  UNL1        0.1065
     16 C           7.3321   -0.8667    0.0000 C.ar    1  UNL1        0.0228
     17 C           6.4260   -1.3805    0.0000 C.ar    1  UNL1        0.1347
     18 C           4.6660   -1.3458    0.0000 C.ar    1  UNL1        0.2074
     19 C           3.8000    0.1542    0.0000 C.ar    1  UNL1        0.1839
     20 C           3.8000   -0.8458    0.0000 C.ar    1  UNL1        0.1096
     21 C           2.9061    0.6888    0.0000 C.ar    1  UNL1        0.1600
     22 C           2.9061   -1.3805    0.0000 C.ar    1  UNL1        0.1315
     23 C           2.0000    0.1750    0.0000 C.ar    1  UNL1       -0.0130
     24 C           2.0000   -0.8667    0.0000 C.ar    1  UNL1       -0.0158
     25 H           8.2845    1.7906    0.0000 H       1  UNL1        0.0739
     26 H           7.1418    2.7651    0.0000 H       1  UNL1        0.0239
     27 H           6.4571    3.3128    0.0000 H       1  UNL1        0.0239
     28 H           5.9094    2.6281    0.0000 H       1  UNL1        0.0239
     29 H           5.7820    2.5120    0.0000 H       1  UNL1        0.0239
     30 H           5.0495    2.0301    0.0000 H       1  UNL1        0.0239
     31 H           5.5315    1.2976    0.0000 H       1  UNL1        0.0239
     32 H           8.6977    2.3820    0.0000 H       1  UNL1        0.0265
     33 H           8.4643    3.2272    0.0000 H       1  UNL1        0.0265
     34 H           7.6191    2.9937    0.0000 H       1  UNL1        0.0265
     35 H           7.8678   -1.1787    0.0000 H       1  UNL1        0.0691
     36 H           6.9478   -2.6966    0.0000 H       1  UNL1        0.2922
     37 H           1.4643    0.4870    0.0000 H       1  UNL1        0.0656
     38 H           1.4643   -1.1787    0.0000 H       1  UNL1        0.0655
     39 H           2.3843   -2.6966    0.0000 H       1  UNL1        0.2922
     40 H           2.3843    2.0049    0.0000 H       1  UNL1        0.2923
@<TRIPOS>BOND
     1     1     8    1
     2     1    10    1
     3     2    13   ar
     4     2    19   ar
     5     3    17    1
     6     3    36    1
     7     4    18    2
     8     5    21    1
     9     5    40    1
    10     6    22    1
    11     6    39    1
    12     7     8    1
    13     7     9    1
    14     7    11    1
    15     7    12    1
    16     8    14    1
    17     8    25    1
    18     9    10   ar
    19     9    13   ar
    20    10    16   ar
    21    11    26    1
    22    11    27    1
    23    11    28    1
    24    12    29    1
    25    12    30    1
    26    12    31    1
    27    13    15   ar
    28    14    32    1
    29    14    33    1
    30    14    34    1
    31    15    17   ar
    32    15    18   ar
    33    16    17   ar
    34    16    35    1
    35    18    20   ar
    36    19    20   ar
    37    19    21   ar
    38    20    22   ar
    39    21    23   ar
    40    22    24   ar
    41    23    24   ar
    42    23    37    1
    43    24    38    1
