@<TRIPOS>MOLECULE
IMPHY015646
 40 42 0 0 0
SMALL
GASTEIGER

@<TRIPOS>ATOM
      1 O           4.0283   -1.2382    0.0000 O.3     1  UNL1       -0.3880
      2 C           2.8846    0.8090    0.0000 C.3     1  UNL1       -0.0226
      3 C           3.5917    0.1019    0.0000 C.3     1  UNL1        0.0005
      4 C           3.5917    1.5162    0.0000 C.3     1  UNL1       -0.0281
      5 C           4.2988    0.8090    0.0000 C.3     1  UNL1       -0.0109
      6 C           3.1381   -0.7826    0.0000 C.3     1  UNL1        0.0723
      7 C           2.0000    0.3554    0.0000 C.3     1  UNL1       -0.0444
      8 C           2.1564   -0.6263    0.0000 C.3     1  UNL1       -0.0229
      9 C           4.0453    2.4007    0.0000 C.3     1  UNL1       -0.0455
     10 C           5.1833    1.2626    0.0000 C.2     1  UNL1       -0.0729
     11 C           2.1774    1.5162    0.0000 C.3     1  UNL1       -0.0589
     12 C           5.0270    2.2444    0.0000 C.3     1  UNL1       -0.0314
     13 C           2.9799   -1.7700    0.0000 C.3     1  UNL1       -0.0175
     14 C           6.0751    0.8102    0.0000 C.2     1  UNL1       -0.0992
     15 C           2.0457   -2.1268    0.0000 C.3     1  UNL1       -0.0600
     16 C           3.7560   -2.4007    0.0000 C.3     1  UNL1       -0.0600
     17 H           4.0928   -0.2631    0.0000 H       1  UNL1        0.0340
     18 H           3.0906    1.8812    0.0000 H       1  UNL1        0.0312
     19 H           4.6638    0.3079    0.0000 H       1  UNL1        0.0352
     20 H           1.7766    0.9338    0.0000 H       1  UNL1        0.0272
     21 H           1.4014    0.1941    0.0000 H       1  UNL1        0.0272
     22 H           1.5372   -0.6589    0.0000 H       1  UNL1        0.0293
     23 H           2.1237   -1.2454    0.0000 H       1  UNL1        0.0293
     24 H           4.2066    2.9994    0.0000 H       1  UNL1        0.0271
     25 H           3.4669    2.6241    0.0000 H       1  UNL1        0.0271
     26 H           2.6159    1.9546    0.0000 H       1  UNL1        0.0235
     27 H           1.7390    1.9546    0.0000 H       1  UNL1        0.0235
     28 H           1.7390    1.0777    0.0000 H       1  UNL1        0.0235
     29 H           5.6461    2.2770    0.0000 H       1  UNL1        0.0310
     30 H           5.0596    2.8635    0.0000 H       1  UNL1        0.0310
     31 H           2.8819   -2.3822    0.0000 H       1  UNL1        0.0323
     32 H           4.5488   -0.9014    0.0000 H       1  UNL1        0.2102
     33 H           6.1086    0.1911    0.0000 H       1  UNL1        0.0534
     34 H           6.5945    1.1488    0.0000 H       1  UNL1        0.0534
     35 H           1.8245   -1.5476    0.0000 H       1  UNL1        0.0233
     36 H           1.4665   -2.3480    0.0000 H       1  UNL1        0.0233
     37 H           2.2669   -2.7060    0.0000 H       1  UNL1        0.0233
     38 H           3.3650   -2.8819    0.0000 H       1  UNL1        0.0233
     39 H           4.2371   -2.7917    0.0000 H       1  UNL1        0.0233
     40 H           4.1470   -1.9196    0.0000 H       1  UNL1        0.0233
@<TRIPOS>BOND
     1     1     6    1
     2     1    32    1
     3     2     3    1
     4     2     4    1
     5     2     7    1
     6     2    11    1
     7     3     5    1
     8     3     6    1
     9     3    17    1
    10     4     5    1
    11     4     9    1
    12     4    18    1
    13     5    10    1
    14     5    19    1
    15     6     8    1
    16     6    13    1
    17     7     8    1
    18     7    20    1
    19     7    21    1
    20     8    22    1
    21     8    23    1
    22     9    12    1
    23     9    24    1
    24     9    25    1
    25    10    12    1
    26    10    14    2
    27    11    26    1
    28    11    27    1
    29    11    28    1
    30    12    29    1
    31    12    30    1
    32    13    15    1
    33    13    16    1
    34    13    31    1
    35    14    33    1
    36    14    34    1
    37    15    35    1
    38    15    36    1
    39    15    37    1
    40    16    38    1
    41    16    39    1
    42    16    40    1
