@<TRIPOS>MOLECULE
IMPHY012043
 43 42 0 0 0
SMALL
GASTEIGER

@<TRIPOS>ATOM
      1 O           8.0622   -2.3450    0.0000 O.3     1  UNL1       -0.3877
      2 O          14.9904    0.6550    0.0000 O.3     1  UNL1       -0.3757
      3 C           5.4641   -0.8450    0.0000 C.3     1  UNL1       -0.0530
      4 C           6.3301   -1.3450    0.0000 C.3     1  UNL1       -0.0504
      5 C           4.5981   -1.3450    0.0000 C.3     1  UNL1       -0.0531
      6 C           7.1962   -0.8450    0.0000 C.3     1  UNL1       -0.0232
      7 C           3.7320   -0.8450    0.0000 C.3     1  UNL1       -0.0533
      8 C           8.0622   -1.3450    0.0000 C.3     1  UNL1        0.0742
      9 C           2.8660   -1.3450    0.0000 C.3     1  UNL1       -0.0559
     10 C           2.0000   -0.8450    0.0000 C.3     1  UNL1       -0.0653
     11 C           8.9282   -0.8450    0.0000 C.2     1  UNL1       -0.0477
     12 C           9.7942   -1.3450    0.0000 C.2     1  UNL1       -0.0121
     13 C          10.6603   -0.8450    0.0000 C.1     1  UNL1       -0.0605
     14 C          11.5263   -0.3450    0.0000 C.1     1  UNL1       -0.0101
     15 C          12.3923    0.1550    0.0000 C.1     1  UNL1       -0.0116
     16 C          14.1244    1.1550    0.0000 C.3     1  UNL1        0.1348
     17 C          13.2583    0.6550    0.0000 C.1     1  UNL1       -0.0529
     18 C          14.1244    2.1550    0.0000 C.2     1  UNL1       -0.0510
     19 C          14.9904    2.6550    0.0000 C.2     1  UNL1       -0.0993
     20 H           5.8626   -0.3701    0.0000 H       1  UNL1        0.0265
     21 H           5.0656   -0.3701    0.0000 H       1  UNL1        0.0265
     22 H           5.9316   -1.8200    0.0000 H       1  UNL1        0.0266
     23 H           6.7287   -1.8200    0.0000 H       1  UNL1        0.0266
     24 H           4.1996   -1.8200    0.0000 H       1  UNL1        0.0265
     25 H           4.9966   -1.8200    0.0000 H       1  UNL1        0.0265
     26 H           7.5947   -0.3701    0.0000 H       1  UNL1        0.0293
     27 H           6.7976   -0.3701    0.0000 H       1  UNL1        0.0293
     28 H           4.1306   -0.3701    0.0000 H       1  UNL1        0.0265
     29 H           3.3335   -0.3701    0.0000 H       1  UNL1        0.0265
     30 H           7.5252   -1.6550    0.0000 H       1  UNL1        0.0638
     31 H           2.4675   -1.8200    0.0000 H       1  UNL1        0.0263
     32 H           3.2646   -1.8200    0.0000 H       1  UNL1        0.0263
     33 H           2.3100   -0.3081    0.0000 H       1  UNL1        0.0230
     34 H           1.4631   -0.5350    0.0000 H       1  UNL1        0.0230
     35 H           1.6900   -1.3819    0.0000 H       1  UNL1        0.0230
     36 H           8.9282   -0.2250    0.0000 H       1  UNL1        0.0604
     37 H           7.5252   -2.6550    0.0000 H       1  UNL1        0.2102
     38 H           9.7942   -1.9650    0.0000 H       1  UNL1        0.0710
     39 H          14.1244    0.5350    0.0000 H       1  UNL1        0.0777
     40 H          13.5874    2.4650    0.0000 H       1  UNL1        0.0601
     41 H          15.5273    0.9650    0.0000 H       1  UNL1        0.2114
     42 H          15.5273    2.3450    0.0000 H       1  UNL1        0.0533
     43 H          14.9904    3.2750    0.0000 H       1  UNL1        0.0533
@<TRIPOS>BOND
     1     1     8    1
     2     1    37    1
     3     2    16    1
     4     2    41    1
     5     3     4    1
     6     3     5    1
     7     3    20    1
     8     3    21    1
     9     4     6    1
    10     4    22    1
    11     4    23    1
    12     5     7    1
    13     5    24    1
    14     5    25    1
    15     6     8    1
    16     6    26    1
    17     6    27    1
    18     7     9    1
    19     7    28    1
    20     7    29    1
    21     8    11    1
    22     8    30    1
    23     9    10    1
    24     9    31    1
    25     9    32    1
    26    10    33    1
    27    10    34    1
    28    10    35    1
    29    11    12    2
    30    11    36    1
    31    12    13    1
    32    12    38    1
    33    13    14    3
    34    14    15    1
    35    15    17    3
    36    16    17    1
    37    16    18    1
    38    16    39    1
    39    18    19    2
    40    18    40    1
    41    19    42    1
    42    19    43    1
