@<TRIPOS>MOLECULE
IMPHY005900
 23 22 0 0 0
SMALL
GASTEIGER

@<TRIPOS>ATOM
      1 S           6.3301    0.2500    0.0000 S.3     1  UNL1       -0.0818
      2 S           4.5981    0.2500    0.0000 S.3     1  UNL1       -0.0818
      3 S           5.4641   -0.2500    0.0000 S.3     1  UNL1       -0.0242
      4 C           8.0622    0.2500    0.0000 C.3     1  UNL1       -0.0460
      5 C           2.8660    0.2500    0.0000 C.3     1  UNL1       -0.0460
      6 C           7.1962   -0.2500    0.0000 C.3     1  UNL1        0.0044
      7 C           3.7320   -0.2500    0.0000 C.3     1  UNL1        0.0044
      8 C           8.9282   -0.2500    0.0000 C.3     1  UNL1       -0.0645
      9 C           2.0000   -0.2500    0.0000 C.3     1  UNL1       -0.0645
     10 H           3.2646    0.7249    0.0000 H       1  UNL1        0.0271
     11 H           2.4675    0.7249    0.0000 H       1  UNL1        0.0271
     12 H           8.4607    0.7249    0.0000 H       1  UNL1        0.0271
     13 H           7.6636    0.7249    0.0000 H       1  UNL1        0.0271
     14 H           3.3335   -0.7249    0.0000 H       1  UNL1        0.0385
     15 H           4.1306   -0.7249    0.0000 H       1  UNL1        0.0385
     16 H           6.7976   -0.7249    0.0000 H       1  UNL1        0.0385
     17 H           7.5947   -0.7249    0.0000 H       1  UNL1        0.0385
     18 H           8.6182   -0.7869    0.0000 H       1  UNL1        0.0230
     19 H           9.4651   -0.5600    0.0000 H       1  UNL1        0.0230
     20 H           9.2382    0.2869    0.0000 H       1  UNL1        0.0230
     21 H           1.6900    0.2869    0.0000 H       1  UNL1        0.0230
     22 H           1.4631   -0.5600    0.0000 H       1  UNL1        0.0230
     23 H           2.3100   -0.7869    0.0000 H       1  UNL1        0.0230
@<TRIPOS>BOND
     1     1     3    1
     2     1     6    1
     3     2     3    1
     4     2     7    1
     5     4     6    1
     6     4     8    1
     7     4    12    1
     8     4    13    1
     9     5     7    1
    10     5     9    1
    11     5    10    1
    12     5    11    1
    13     6    16    1
    14     6    17    1
    15     7    14    1
    16     7    15    1
    17     8    18    1
    18     8    19    1
    19     8    20    1
    20     9    21    1
    21     9    22    1
    22     9    23    1
