@<TRIPOS>MOLECULE
IMPHY007087
 45 48 0 0 0
SMALL
GASTEIGER

@<TRIPOS>ATOM
      1 O           2.8660    1.2581    0.0000 O.3     1  UNL1       -0.5056
      2 O           3.3126   -1.2741    0.0000 O.3     1  UNL1       -0.5056
      3 O           2.8660    4.2581    0.0000 O.3     1  UNL1       -0.4770
      4 O           4.3386   -4.0931    0.0000 O.3     1  UNL1       -0.4770
      5 O           2.0000    2.7581    0.0000 O.2     1  UNL1       -0.2450
      6 O           3.0117   -2.9798    0.0000 O.2     1  UNL1       -0.2450
      7 C           4.5981    0.2581    0.0000 C.3     1  UNL1        0.0057
      8 C           4.5981    1.2581    0.0000 C.ar    1  UNL1        0.0070
      9 C           4.9401   -0.6816    0.0000 C.ar    1  UNL1        0.0070
     10 C           5.4641    1.7581    0.0000 C.ar    1  UNL1       -0.0109
     11 C           5.9249   -0.8553    0.0000 C.ar    1  UNL1       -0.0109
     12 C           5.4641    2.7581    0.0000 C.ar    1  UNL1       -0.0166
     13 C           6.2669   -1.7950    0.0000 C.ar    1  UNL1       -0.0166
     14 C           3.7320    1.7581    0.0000 C.ar    1  UNL1        0.1349
     15 C           4.2973   -1.4477    0.0000 C.ar    1  UNL1        0.1349
     16 C           3.7320    2.7581    0.0000 C.ar    1  UNL1        0.1010
     17 C           4.6393   -2.3874    0.0000 C.ar    1  UNL1        0.1010
     18 C           4.5981    3.2581    0.0000 C.ar    1  UNL1       -0.0365
     19 C           5.6241   -2.5610    0.0000 C.ar    1  UNL1       -0.0365
     20 C           6.3580    1.2234    0.0000 C.ar    1  UNL1       -0.0536
     21 C           6.5821   -0.0471    0.0000 C.ar    1  UNL1       -0.0536
     22 C           6.3580    3.2927    0.0000 C.ar    1  UNL1       -0.0540
     23 C           7.2898   -1.9916    0.0000 C.ar    1  UNL1       -0.0540
     24 C           7.2641    1.7372    0.0000 C.ar    1  UNL1       -0.0612
     25 C           7.6092   -0.2201    0.0000 C.ar    1  UNL1       -0.0612
     26 C           7.9655   -1.1989    0.0000 C.ar    1  UNL1       -0.0612
     27 C           7.2641    2.7789    0.0000 C.ar    1  UNL1       -0.0612
     28 C           2.8660    3.2581    0.0000 C.2     1  UNL1        0.3404
     29 C           3.9965   -3.1534    0.0000 C.2     1  UNL1        0.3404
     30 H           4.0288    0.5036    0.0000 H       1  UNL1        0.0364
     31 H           5.2087    0.3657    0.0000 H       1  UNL1        0.0364
     32 H           5.8362   -3.1436    0.0000 H       1  UNL1        0.0633
     33 H           4.5981    3.8781    0.0000 H       1  UNL1        0.0633
     34 H           6.3633    0.5330    0.0000 H       1  UNL1        0.0624
     35 H           6.3509    0.6034    0.0000 H       1  UNL1        0.0624
     36 H           7.4951   -2.5767    0.0000 H       1  UNL1        0.0624
     37 H           6.3509    3.9127    0.0000 H       1  UNL1        0.0624
     38 H           8.0059    0.2564    0.0000 H       1  UNL1        0.0618
     39 H           7.7998    1.4252    0.0000 H       1  UNL1        0.0618
     40 H           7.7998    3.0909    0.0000 H       1  UNL1        0.0618
     41 H           8.5757   -1.3089    0.0000 H       1  UNL1        0.0618
     42 H           2.9140   -1.7490    0.0000 H       1  UNL1        0.2922
     43 H           2.3291    1.5681    0.0000 H       1  UNL1        0.2922
     44 H           2.3291    4.5681    0.0000 H       1  UNL1        0.2954
     45 H           3.9400   -4.5681    0.0000 H       1  UNL1        0.2954
@<TRIPOS>BOND
     1     1    14    1
     2     1    43    1
     3     2    15    1
     4     2    42    1
     5     3    28    1
     6     3    44    1
     7     4    29    1
     8     4    45    1
     9     5    28    2
    10     6    29    2
    11     7     8    1
    12     7     9    1
    13     7    30    1
    14     7    31    1
    15     8    10   ar
    16     8    14   ar
    17     9    11   ar
    18     9    15   ar
    19    10    12   ar
    20    10    20   ar
    21    11    13   ar
    22    11    21   ar
    23    12    18   ar
    24    12    22   ar
    25    13    19   ar
    26    13    23   ar
    27    14    16   ar
    28    15    17   ar
    29    16    18   ar
    30    16    28    1
    31    17    19   ar
    32    17    29    1
    33    18    33    1
    34    19    32    1
    35    20    24   ar
    36    20    35    1
    37    21    25   ar
    38    21    34    1
    39    22    27   ar
    40    22    37    1
    41    23    26   ar
    42    23    36    1
    43    24    27   ar
    44    24    39    1
    45    25    26   ar
    46    25    38    1
    47    26    41    1
    48    27    40    1
