@<TRIPOS>MOLECULE
IMPHY009451
 48 51 0 0 0
SMALL
GASTEIGER

@<TRIPOS>ATOM
      1 O           4.4894   -1.0570    0.0000 O.3     1  UNL1       -0.3780
      2 N           4.8157    1.4779    0.0000 N.3     1  UNL1       -0.3017
      3 N           2.0000   -1.1579    0.0000 N.2     1  UNL1       -0.2529
      4 C           3.0497    2.1207    0.0000 C.3     1  UNL1       -0.0164
      5 C           4.0497    2.1207    0.0000 C.3     1  UNL1        0.0045
      6 C           3.4440    3.0600    0.0000 C.3     1  UNL1       -0.0450
      7 C           2.2836    1.4779    0.0000 C.3     1  UNL1       -0.0410
      8 C           4.4500    3.2206    0.0000 C.3     1  UNL1       -0.0397
      9 C           2.2446    2.7139    0.0000 C.3     1  UNL1       -0.0490
     10 C           5.1174    2.4509    0.0000 C.3     1  UNL1       -0.0011
     11 C           2.1100    0.4931    0.0000 C.3     1  UNL1       -0.0106
     12 C           4.9894    0.4931    0.0000 C.3     1  UNL1        0.0022
     13 C           3.5497   -0.7150    0.0000 C.3     1  UNL1        0.1318
     14 C           4.4894   -0.3730    0.0000 C.3     1  UNL1       -0.0016
     15 C           2.6100   -0.3730    0.0000 C.2     1  UNL1        0.0555
     16 C           3.5124   -1.7084    0.0000 C.ar    1  UNL1        0.0148
     17 C           2.3559    3.7077    0.0000 C.3     1  UNL1       -0.0647
     18 C           2.5566   -1.9815    0.0000 C.ar    1  UNL1        0.0702
     19 C           4.2676   -2.4167    0.0000 C.ar    1  UNL1       -0.0535
     20 C           2.2898   -2.9820    0.0000 C.ar    1  UNL1       -0.0359
     21 C           4.0240   -3.4231    0.0000 C.ar    1  UNL1       -0.0613
     22 C           3.0284   -3.7077    0.0000 C.ar    1  UNL1       -0.0597
     23 H           4.5677    2.4614    0.0000 H       1  UNL1        0.0432
     24 H           3.8719    2.7146    0.0000 H       1  UNL1        0.0432
     25 H           3.4607    3.6797    0.0000 H       1  UNL1        0.0271
     26 H           2.8380    3.1906    0.0000 H       1  UNL1        0.0271
     27 H           2.0381    2.0472    0.0000 H       1  UNL1        0.0275
     28 H           1.6678    1.4059    0.0000 H       1  UNL1        0.0275
     29 H           4.9853    3.5335    0.0000 H       1  UNL1        0.0278
     30 H           4.2411    3.8044    0.0000 H       1  UNL1        0.0278
     31 H           1.6498    2.8888    0.0000 H       1  UNL1        0.0268
     32 H           1.9691    2.1585    0.0000 H       1  UNL1        0.0268
     33 H           5.6656    2.1614    0.0000 H       1  UNL1        0.0426
     34 H           5.5030    2.9364    0.0000 H       1  UNL1        0.0426
     35 H           1.5559    0.7713    0.0000 H       1  UNL1        0.0326
     36 H           1.6845    0.0421    0.0000 H       1  UNL1        0.0326
     37 H           5.4148    0.0421    0.0000 H       1  UNL1        0.0428
     38 H           5.5434    0.7713    0.0000 H       1  UNL1        0.0428
     39 H           4.5254   -0.9919    0.0000 H       1  UNL1        0.0312
     40 H           5.0926   -0.5159    0.0000 H       1  UNL1        0.0312
     41 H           2.9721    3.6387    0.0000 H       1  UNL1        0.0230
     42 H           2.4249    4.3238    0.0000 H       1  UNL1        0.0230
     43 H           1.7398    3.7767    0.0000 H       1  UNL1        0.0230
     44 H           4.5970   -1.6676    0.0000 H       1  UNL1        0.2111
     45 H           4.8618   -2.2395    0.0000 H       1  UNL1        0.0622
     46 H           1.6917   -3.1455    0.0000 H       1  UNL1        0.0639
     47 H           4.4713   -3.8525    0.0000 H       1  UNL1        0.0618
     48 H           2.8756   -4.3086    0.0000 H       1  UNL1        0.0618
@<TRIPOS>BOND
     1    13     1    1
     2     1    44    1
     3     2     5    1
     4     2    10    1
     5     2    12    1
     6     3    15    2
     7     3    18    1
     8     4     5    1
     9     4     6    1
    10     4     7    1
    11     4     9    1
    12     5    23    1
    13     5    24    1
    14     6     8    1
    15     6    25    1
    16     6    26    1
    17     7    11    1
    18     7    27    1
    19     7    28    1
    20     8    10    1
    21     8    29    1
    22     8    30    1
    23     9    17    1
    24     9    31    1
    25     9    32    1
    26    10    33    1
    27    10    34    1
    28    11    15    1
    29    11    35    1
    30    11    36    1
    31    12    14    1
    32    12    37    1
    33    12    38    1
    34    13    14    1
    35    13    15    1
    36    13    16    1
    37    14    39    1
    38    14    40    1
    39    16    18   ar
    40    16    19   ar
    41    17    41    1
    42    17    42    1
    43    17    43    1
    44    18    20   ar
    45    19    21   ar
    46    19    45    1
    47    20    22   ar
    48    20    46    1
    49    21    22   ar
    50    21    47    1
    51    22    48    1
