@<TRIPOS>MOLECULE
IMPHY006040
 24 27 0 0 0
SMALL
GASTEIGER

@<TRIPOS>ATOM
      1 N           5.4332   -0.7490    0.0000 N.ar    1  UNL1       -0.2543
      2 N           2.0008   -0.8710    0.0000 N.ar    1  UNL1       -0.2543
      3 C           3.6662   -0.9279    0.0000 C.ar    1  UNL1        0.0341
      4 C           4.1662    0.6110    0.0000 C.ar    1  UNL1        0.0102
      5 C           3.1662    0.6110    0.0000 C.ar    1  UNL1        0.0102
      6 C           4.4752   -0.3401    0.0000 C.ar    1  UNL1        0.0813
      7 C           2.8571   -0.3401    0.0000 C.ar    1  UNL1        0.0813
      8 C           3.7590   -1.9653    0.0000 C.ar    1  UNL1       -0.0109
      9 C           4.7008    1.5049    0.0000 C.ar    1  UNL1       -0.0519
     10 C           2.6315    1.5049    0.0000 C.ar    1  UNL1       -0.0519
     11 C           4.7073   -2.3963    0.0000 C.ar    1  UNL1       -0.0357
     12 C           2.8554   -2.4110    0.0000 C.ar    1  UNL1       -0.0357
     13 C           5.5500   -1.7841    0.0000 C.ar    1  UNL1        0.0289
     14 C           2.0000   -1.8786    0.0000 C.ar    1  UNL1        0.0289
     15 C           4.1870    2.4110    0.0000 C.ar    1  UNL1       -0.0611
     16 C           3.1453    2.4110    0.0000 C.ar    1  UNL1       -0.0611
     17 H           5.3208    1.4978    0.0000 H       1  UNL1        0.0624
     18 H           2.0115    1.4978    0.0000 H       1  UNL1        0.0624
     19 H           4.7698   -3.0132    0.0000 H       1  UNL1        0.0639
     20 H           2.8249   -3.0302    0.0000 H       1  UNL1        0.0639
     21 H           6.1174   -2.0341    0.0000 H       1  UNL1        0.0830
     22 H           1.4579   -2.1794    0.0000 H       1  UNL1        0.0830
     23 H           4.4990    2.9467    0.0000 H       1  UNL1        0.0618
     24 H           2.8333    2.9467    0.0000 H       1  UNL1        0.0618
@<TRIPOS>BOND
     1     1     6   ar
     2     1    13   ar
     3     2     7   ar
     4     2    14   ar
     5     3     6   ar
     6     3     7   ar
     7     3     8   ar
     8     4     5   ar
     9     4     6    1
    10     4     9   ar
    11     5     7    1
    12     5    10   ar
    13     8    11   ar
    14     8    12   ar
    15     9    15   ar
    16     9    17    1
    17    10    16   ar
    18    10    18    1
    19    11    13   ar
    20    11    19    1
    21    12    14   ar
    22    12    20    1
    23    13    21    1
    24    14    22    1
    25    15    16   ar
    26    15    23    1
    27    16    24    1
