@<TRIPOS>MOLECULE
IMPHY008488
 37 39 0 0 0
SMALL
GASTEIGER

@<TRIPOS>ATOM
      1 CL          8.1282    2.5843    0.0000 Cl      1  UNL1       -0.1159
      2 O           5.5301    0.0843    0.0000 O.3     1  UNL1       -0.4825
      3 O           5.5301    2.0843    0.0000 O.3     1  UNL1       -0.3867
      4 O           7.3424   -1.1110    0.0000 O.2     1  UNL1       -0.4591
      5 O           3.7702   -0.8810    0.0000 O.2     1  UNL1       -0.4183
      6 O           2.0000   -0.8915    0.0000 O.2     1  UNL1       -0.2452
      7 C           7.2622    2.0843    0.0000 C.3     1  UNL1        0.0685
      8 C           6.3961    1.5843    0.0000 C.3     1  UNL1        0.1075
      9 C           6.3961    0.5843    0.0000 C.3     1  UNL1        0.1173
     10 C           6.7622    2.9503    0.0000 C.3     1  UNL1       -0.0437
     11 C           7.7622    1.2183    0.0000 C.3     1  UNL1       -0.0437
     12 C           5.5301   -0.9157    0.0000 C.ar    1  UNL1        0.2064
     13 C           6.3961   -1.4157    0.0000 C.ar    1  UNL1        0.1799
     14 C           4.6641   -1.4157    0.0000 C.ar    1  UNL1        0.1842
     15 C           6.3961   -2.4157    0.0000 C.ar    1  UNL1        0.0246
     16 C           4.6641   -2.4157    0.0000 C.ar    1  UNL1        0.0221
     17 C           5.5301   -2.9157    0.0000 C.ar    1  UNL1       -0.0401
     18 C           7.3424   -2.7204    0.0000 C.ar    1  UNL1       -0.0160
     19 C           3.7702   -2.9503    0.0000 C.ar    1  UNL1       -0.0442
     20 C           7.9260   -1.9157    0.0000 C.ar    1  UNL1        0.0933
     21 C           2.8641   -2.4365    0.0000 C.ar    1  UNL1        0.0236
     22 C           2.8641   -1.3949    0.0000 C.ar    1  UNL1        0.3373
     23 H           5.8592    1.2743    0.0000 H       1  UNL1        0.0645
     24 H           6.6082    0.0017    0.0000 H       1  UNL1        0.0723
     25 H           7.0067    0.6920    0.0000 H       1  UNL1        0.0723
     26 H           7.2252    0.9083    0.0000 H       1  UNL1        0.0247
     27 H           8.0722    0.6814    0.0000 H       1  UNL1        0.0247
     28 H           7.2991    3.2603    0.0000 H       1  UNL1        0.0247
     29 H           6.4522    3.4873    0.0000 H       1  UNL1        0.0247
     30 H           6.2252    2.6403    0.0000 H       1  UNL1        0.0247
     31 H           8.2991    1.5283    0.0000 H       1  UNL1        0.0247
     32 H           5.5301   -3.5357    0.0000 H       1  UNL1        0.0632
     33 H           5.5301    2.7043    0.0000 H       1  UNL1        0.2100
     34 H           7.5350   -3.3097    0.0000 H       1  UNL1        0.0655
     35 H           3.7773   -3.5703    0.0000 H       1  UNL1        0.0627
     36 H           8.5460   -1.9157    0.0000 H       1  UNL1        0.1030
     37 H           2.3284   -2.7486    0.0000 H       1  UNL1        0.0689
@<TRIPOS>BOND
     1     1     7    1
     2     2     9    1
     3     2    12    1
     4     3     8    1
     5     3    33    1
     6     4    13   ar
     7     4    20   ar
     8     5    14   ar
     9     5    22   ar
    10     6    22    2
    11     7     8    1
    12     7    10    1
    13     7    11    1
    14     8     9    1
    15     8    23    1
    16     9    24    1
    17     9    25    1
    18    10    28    1
    19    10    29    1
    20    10    30    1
    21    11    26    1
    22    11    27    1
    23    11    31    1
    24    12    13   ar
    25    12    14   ar
    26    13    15   ar
    27    14    16   ar
    28    15    17   ar
    29    15    18   ar
    30    16    17   ar
    31    16    19   ar
    32    17    32    1
    33    18    20   ar
    34    18    34    1
    35    19    21   ar
    36    19    35    1
    37    20    36    1
    38    21    22   ar
    39    21    37    1
