@<TRIPOS>MOLECULE
IMPHY015378
 26 26 0 0 0
SMALL
GASTEIGER

@<TRIPOS>ATOM
      1 O           3.7320   -1.9050    0.0000 O.3     1  UNL1       -0.4948
      2 O           3.7320    2.0950    0.0000 O.3     1  UNL1       -0.5062
      3 C           2.8660    0.5950    0.0000 C.ar    1  UNL1       -0.0024
      4 C           2.8660   -0.4050    0.0000 C.ar    1  UNL1       -0.0024
      5 C           4.5981    0.5950    0.0000 C.ar    1  UNL1       -0.0053
      6 C           3.7320    1.0950    0.0000 C.ar    1  UNL1        0.1231
      7 C           3.7320   -0.9050    0.0000 C.ar    1  UNL1        0.1237
      8 C           4.5981   -0.4050    0.0000 C.ar    1  UNL1       -0.0133
      9 C           2.0000    1.0950    0.0000 C.3     1  UNL1       -0.0359
     10 C           2.0000   -0.9050    0.0000 C.3     1  UNL1       -0.0359
     11 C           5.4641    1.0950    0.0000 C.3     1  UNL1       -0.0361
     12 C           4.5981   -2.4050    0.0000 C.3     1  UNL1        0.0788
     13 H           5.1350   -0.7150    0.0000 H       1  UNL1        0.0658
     14 H           1.6900   -0.3681    0.0000 H       1  UNL1        0.0279
     15 H           1.4631   -1.2150    0.0000 H       1  UNL1        0.0279
     16 H           2.3100   -1.4419    0.0000 H       1  UNL1        0.0279
     17 H           2.3100    1.6319    0.0000 H       1  UNL1        0.0279
     18 H           1.4631    1.4050    0.0000 H       1  UNL1        0.0279
     19 H           1.6900    0.5581    0.0000 H       1  UNL1        0.0279
     20 H           5.7741    0.5581    0.0000 H       1  UNL1        0.0279
     21 H           6.0010    1.4050    0.0000 H       1  UNL1        0.0279
     22 H           5.1541    1.6319    0.0000 H       1  UNL1        0.0279
     23 H           4.2690    2.4050    0.0000 H       1  UNL1        0.2922
     24 H           4.2881   -2.9419    0.0000 H       1  UNL1        0.0660
     25 H           5.1350   -2.7150    0.0000 H       1  UNL1        0.0660
     26 H           4.9081   -1.8681    0.0000 H       1  UNL1        0.0660
@<TRIPOS>BOND
     1     1     7    1
     2     1    12    1
     3     2     6    1
     4     2    23    1
     5     3     4   ar
     6     3     6   ar
     7     3     9    1
     8     4     7   ar
     9     4    10    1
    10     5     6   ar
    11     5     8   ar
    12     5    11    1
    13     7     8   ar
    14     8    13    1
    15     9    17    1
    16     9    18    1
    17     9    19    1
    18    10    14    1
    19    10    15    1
    20    10    16    1
    21    11    20    1
    22    11    21    1
    23    11    22    1
    24    12    24    1
    25    12    25    1
    26    12    26    1
