@<TRIPOS>MOLECULE
IMPHY008348
 78 82 0 0 0
SMALL
GASTEIGER

@<TRIPOS>ATOM
      1 O           8.0622   -2.7500    0.0000 O.3     1  UNL1       -0.3402
      2 O           6.3301   -2.7500    0.0000 O.3     1  UNL1       -0.3394
      3 O           7.1962   -0.2500    0.0000 O.3     1  UNL1       -0.3338
      4 O           9.7942   -1.7500    0.0000 O.3     1  UNL1       -0.3863
      5 O           8.0622   -4.7500    0.0000 O.3     1  UNL1       -0.3841
      6 O           6.3301   -5.7500    0.0000 O.3     1  UNL1       -0.3864
      7 O           8.0622    1.2500    0.0000 O.3     1  UNL1       -0.4532
      8 O           9.7942    0.2500    0.0000 O.3     1  UNL1       -0.3829
      9 O           4.5981   -4.7500    0.0000 O.3     1  UNL1       -0.3864
     10 O           3.7320   -3.2500    0.0000 O.3     1  UNL1       -0.4621
     11 O           6.3301    3.2500    0.0000 O.2     1  UNL1       -0.4507
     12 O           6.3301    0.2500    0.0000 O.2     1  UNL1       -0.2830
     13 O           2.8660   -1.7500    0.0000 O.2     1  UNL1       -0.2512
     14 O           4.5817    0.2154    0.0000 O.3     1  UNL1       -0.5058
     15 O           2.8000    3.2742    0.0000 O.3     1  UNL1       -0.5065
     16 O           8.9282    5.7500    0.0000 O.3     1  UNL1       -0.5033
     17 O          10.6603    4.7500    0.0000 O.3     1  UNL1       -0.5033
     18 C           8.0622   -1.7500    0.0000 C.3     1  UNL1        0.1161
     19 C           8.9282   -1.2500    0.0000 C.3     1  UNL1        0.1155
     20 C           7.1962   -3.2500    0.0000 C.3     1  UNL1        0.1885
     21 C           7.1962   -1.2500    0.0000 C.3     1  UNL1        0.0887
     22 C           7.1962   -4.2500    0.0000 C.3     1  UNL1        0.1341
     23 C           6.3301   -4.7500    0.0000 C.3     1  UNL1        0.1141
     24 C           8.9282   -0.2500    0.0000 C.3     1  UNL1        0.1454
     25 C           5.4641   -4.2500    0.0000 C.3     1  UNL1        0.1129
     26 C           5.4641   -3.2500    0.0000 C.3     1  UNL1        0.1240
     27 C           8.0622    0.2500    0.0000 C.3     1  UNL1        0.2311
     28 C           6.3301   -1.7500    0.0000 C.3     1  UNL1       -0.0360
     29 C           4.5981   -2.7500    0.0000 C.3     1  UNL1        0.1211
     30 C           7.1962    1.7500    0.0000 C.ar    1  UNL1        0.2138
     31 C           7.1962    2.7500    0.0000 C.ar    1  UNL1        0.1810
     32 C           6.3301    1.2500    0.0000 C.ar    1  UNL1        0.2382
     33 C           2.8660   -2.7500    0.0000 C.2     1  UNL1        0.3040
     34 C           5.4641    1.7500    0.0000 C.ar    1  UNL1        0.1092
     35 C           8.0622    3.2500    0.0000 C.ar    1  UNL1        0.0247
     36 C           5.4641    2.7500    0.0000 C.ar    1  UNL1        0.1465
     37 C           2.0000   -3.2500    0.0000 C.3     1  UNL1        0.0332
     38 C           4.5702    1.2153    0.0000 C.ar    1  UNL1        0.1348
     39 C           4.5702    3.2847    0.0000 C.ar    1  UNL1        0.0231
     40 C           8.0622    4.2500    0.0000 C.ar    1  UNL1       -0.0057
     41 C           8.9282    2.7500    0.0000 C.ar    1  UNL1       -0.0473
     42 C           3.6641    1.7292    0.0000 C.ar    1  UNL1        0.0223
     43 C           3.6641    2.7708    0.0000 C.ar    1  UNL1        0.1239
     44 C           8.9282    4.7500    0.0000 C.ar    1  UNL1        0.1589
     45 C           9.7942    3.2500    0.0000 C.ar    1  UNL1       -0.0159
     46 C           9.7942    4.2500    0.0000 C.ar    1  UNL1        0.1583
     47 H           7.5252   -2.0600    0.0000 H       1  UNL1        0.0650
     48 H           9.4651   -0.9400    0.0000 H       1  UNL1        0.0648
     49 H           7.7331   -3.5600    0.0000 H       1  UNL1        0.0938
     50 H           6.6592   -0.9400    0.0000 H       1  UNL1        0.0621
     51 H           7.1962   -4.8700    0.0000 H       1  UNL1        0.0671
     52 H           5.7932   -5.0600    0.0000 H       1  UNL1        0.0648
     53 H           8.9282    0.3700    0.0000 H       1  UNL1        0.0683
     54 H           4.9272   -3.9400    0.0000 H       1  UNL1        0.0647
     55 H           5.4641   -2.6300    0.0000 H       1  UNL1        0.0658
     56 H           7.5252    0.5600    0.0000 H       1  UNL1        0.1084
     57 H           6.0201   -1.2131    0.0000 H       1  UNL1        0.0255
     58 H           5.7932   -2.0600    0.0000 H       1  UNL1        0.0255
     59 H           6.6401   -2.2869    0.0000 H       1  UNL1        0.0255
     60 H           4.9966   -2.2750    0.0000 H       1  UNL1        0.0724
     61 H           4.1996   -2.2750    0.0000 H       1  UNL1        0.0724
     62 H          10.3312   -1.4400    0.0000 H       1  UNL1        0.2100
     63 H           8.5991   -4.4400    0.0000 H       1  UNL1        0.2101
     64 H           6.8671   -6.0600    0.0000 H       1  UNL1        0.2100
     65 H           9.7942    0.8700    0.0000 H       1  UNL1        0.2102
     66 H           4.5981   -5.3700    0.0000 H       1  UNL1        0.2100
     67 H           1.6900   -2.7131    0.0000 H       1  UNL1        0.0342
     68 H           1.4631   -3.5600    0.0000 H       1  UNL1        0.0342
     69 H           2.3100   -3.7869    0.0000 H       1  UNL1        0.0342
     70 H           4.5773    3.9046    0.0000 H       1  UNL1        0.0691
     71 H           7.5252    4.5600    0.0000 H       1  UNL1        0.0662
     72 H           8.9282    2.1300    0.0000 H       1  UNL1        0.0626
     73 H           3.1284    1.4171    0.0000 H       1  UNL1        0.0691
     74 H          10.3312    2.9400    0.0000 H       1  UNL1        0.0655
     75 H           4.0484   -0.1008    0.0000 H       1  UNL1        0.2922
     76 H           2.2619    2.9662    0.0000 H       1  UNL1        0.2921
     77 H           8.3913    6.0600    0.0000 H       1  UNL1        0.2923
     78 H          11.1972    4.4400    0.0000 H       1  UNL1        0.2923
@<TRIPOS>BOND
     1    18     1    1
     2    20     1    1
     3     2    20    1
     4     2    26    1
     5     3    21    1
     6     3    27    1
     7    19     4    1
     8     4    62    1
     9    22     5    1
    10     5    63    1
    11    23     6    1
    12     6    64    1
    13    27     7    1
    14     7    30    1
    15    24     8    1
    16     8    65    1
    17    25     9    1
    18     9    66    1
    19    10    29    1
    20    10    33    1
    21    11    31   ar
    22    11    36   ar
    23    12    32    2
    24    13    33    2
    25    14    38    1
    26    14    75    1
    27    15    43    1
    28    15    76    1
    29    16    44    1
    30    16    77    1
    31    17    46    1
    32    17    78    1
    33    18    19    1
    34    18    21    1
    35    18    47    1
    36    19    24    1
    37    19    48    1
    38    20    22    1
    39    20    49    1
    40    21    28    1
    41    21    50    1
    42    22    23    1
    43    22    51    1
    44    23    25    1
    45    23    52    1
    46    24    27    1
    47    24    53    1
    48    25    26    1
    49    25    54    1
    50    26    29    1
    51    26    55    1
    52    27    56    1
    53    28    57    1
    54    28    58    1
    55    28    59    1
    56    29    60    1
    57    29    61    1
    58    30    31   ar
    59    30    32   ar
    60    31    35    1
    61    32    34   ar
    62    33    37    1
    63    34    36   ar
    64    34    38   ar
    65    35    40   ar
    66    35    41   ar
    67    36    39   ar
    68    37    67    1
    69    37    68    1
    70    37    69    1
    71    38    42   ar
    72    39    43   ar
    73    39    70    1
    74    40    44   ar
    75    40    71    1
    76    41    45   ar
    77    41    72    1
    78    42    43   ar
    79    42    73    1
    80    44    46   ar
    81    45    46   ar
    82    45    74    1
