@<TRIPOS>MOLECULE
IMPHY014474
 79 82 0 0 0
SMALL
GASTEIGER

@<TRIPOS>ATOM
      1 O           2.8718   -5.9084    0.0000 O.3     1  UNL1       -0.4773
      2 O           2.0000   -4.4117    0.0000 O.2     1  UNL1       -0.2455
      3 O           7.2471   -4.3371    0.0000 O.3     1  UNL1       -0.4806
      4 O           6.3581   -2.8506    0.0000 O.2     1  UNL1       -0.2510
      5 O           6.4045    3.3689    0.0000 O.2     1  UNL1       -0.2927
      6 C           4.6102   -1.8358    0.0000 C.3     1  UNL1       -0.0191
      7 C           4.6262   -2.8773    0.0000 C.3     1  UNL1       -0.0153
      8 C           3.7441   -1.3358    0.0000 C.3     1  UNL1       -0.0289
      9 C           5.5207   -2.3426    0.0000 C.3     1  UNL1       -0.0398
     10 C           3.7441   -0.3358    0.0000 C.3     1  UNL1       -0.0231
     11 C           4.6102    0.1642    0.0000 C.3     1  UNL1       -0.0233
     12 C           5.4762   -1.3358    0.0000 C.3     1  UNL1       -0.0460
     13 C           3.7282   -3.4051    0.0000 C.3     1  UNL1       -0.0035
     14 C           5.4762   -0.3358    0.0000 C.3     1  UNL1       -0.0463
     15 C           2.8341   -1.8427    0.0000 C.3     1  UNL1       -0.0486
     16 C           4.6416   -3.8772    0.0000 C.3     1  UNL1       -0.0362
     17 C           4.4010    1.1360    0.0000 C.3     1  UNL1       -0.0321
     18 C           2.8261   -2.8843    0.0000 C.3     1  UNL1       -0.0452
     19 C           3.0071    0.3313    0.0000 C.3     1  UNL1       -0.0466
     20 C           3.4122    1.2390    0.0000 C.3     1  UNL1       -0.0489
     21 C           2.8781   -0.8358    0.0000 C.3     1  UNL1       -0.0588
     22 C           5.4762    0.6642    0.0000 C.3     1  UNL1       -0.0588
     23 C           3.7320   -4.4051    0.0000 C.2     1  UNL1        0.0330
     24 C           5.0688    1.8803    0.0000 C.3     1  UNL1       -0.0336
     25 C           5.5153   -4.3638    0.0000 C.3     1  UNL1        0.0453
     26 C           4.7581    2.8308    0.0000 C.3     1  UNL1        0.0127
     27 C           6.0473    1.6741    0.0000 C.3     1  UNL1       -0.0617
     28 C           2.8680   -4.9084    0.0000 C.2     1  UNL1        0.3325
     29 C           4.6000   -4.9017    0.0000 C.2     1  UNL1       -0.0884
     30 C           6.3735   -3.8505    0.0000 C.2     1  UNL1        0.3047
     31 C           5.4260    3.5751    0.0000 C.2     1  UNL1        0.1563
     32 C           5.1153    4.5256    0.0000 C.2     1  UNL1       -0.0205
     33 C           5.7832    5.2699    0.0000 C.2     1  UNL1       -0.0724
     34 C           5.4725    6.2205    0.0000 C.3     1  UNL1       -0.0437
     35 C           6.7617    5.0637    0.0000 C.3     1  UNL1       -0.0437
     36 H           4.4803   -0.9108    0.0000 H       1  UNL1        0.0312
     37 H           5.9265   -2.8114    0.0000 H       1  UNL1        0.0277
     38 H           5.9118   -1.8616    0.0000 H       1  UNL1        0.0277
     39 H           5.6882   -1.9184    0.0000 H       1  UNL1        0.0271
     40 H           6.0868   -1.2282    0.0000 H       1  UNL1        0.0271
     41 H           3.1918   -3.7161    0.0000 H       1  UNL1        0.0356
     42 H           6.0868   -0.4435    0.0000 H       1  UNL1        0.0271
     43 H           5.6882    0.2468    0.0000 H       1  UNL1        0.0271
     44 H           2.6296   -1.2574    0.0000 H       1  UNL1        0.0268
     45 H           2.2225   -1.9440    0.0000 H       1  UNL1        0.0268
     46 H           4.0295   -3.7790    0.0000 H       1  UNL1        0.0276
     47 H           4.4386   -4.4630    0.0000 H       1  UNL1        0.0276
     48 H           4.0953    1.9292    0.0000 H       1  UNL1        0.0309
     49 H           2.2161   -2.7735    0.0000 H       1  UNL1        0.0271
     50 H           2.6126   -3.4663    0.0000 H       1  UNL1        0.0271
     51 H           2.4706    0.6420    0.0000 H       1  UNL1        0.0271
     52 H           2.6417   -0.1696    0.0000 H       1  UNL1        0.0271
     53 H           3.5410    1.8455    0.0000 H       1  UNL1        0.0268
     54 H           2.8226    1.4308    0.0000 H       1  UNL1        0.0268
     55 H           2.5681   -0.2989    0.0000 H       1  UNL1        0.0235
     56 H           2.3412   -1.1458    0.0000 H       1  UNL1        0.0235
     57 H           3.1881   -1.3728    0.0000 H       1  UNL1        0.0235
     58 H           5.7862    0.1272    0.0000 H       1  UNL1        0.0235
     59 H           6.0131    0.9742    0.0000 H       1  UNL1        0.0235
     60 H           5.1662    1.2011    0.0000 H       1  UNL1        0.0235
     61 H           5.2614    1.2910    0.0000 H       1  UNL1        0.0305
     62 H           5.1241   -4.8448    0.0000 H       1  UNL1        0.0378
     63 H           5.9211   -4.8325    0.0000 H       1  UNL1        0.0378
     64 H           4.3756    3.3187    0.0000 H       1  UNL1        0.0348
     65 H           4.2112    2.5388    0.0000 H       1  UNL1        0.0348
     66 H           5.9194    1.0674    0.0000 H       1  UNL1        0.0233
     67 H           6.6540    1.5462    0.0000 H       1  UNL1        0.0233
     68 H           6.1752    2.2808    0.0000 H       1  UNL1        0.0233
     69 H           4.6024   -5.5217    0.0000 H       1  UNL1        0.0540
     70 H           5.1357   -4.5897    0.0000 H       1  UNL1        0.0540
     71 H           2.3361   -6.2205    0.0000 H       1  UNL1        0.2954
     72 H           7.7792   -4.0188    0.0000 H       1  UNL1        0.2951
     73 H           4.5086    4.6535    0.0000 H       1  UNL1        0.0652
     74 H           6.0618    6.4131    0.0000 H       1  UNL1        0.0274
     75 H           5.2799    6.8098    0.0000 H       1  UNL1        0.0274
     76 H           4.8832    6.0278    0.0000 H       1  UNL1        0.0274
     77 H           6.6338    4.4570    0.0000 H       1  UNL1        0.0274
     78 H           7.3683    4.9359    0.0000 H       1  UNL1        0.0274
     79 H           6.8895    5.6704    0.0000 H       1  UNL1        0.0274
@<TRIPOS>BOND
     1     1    28    1
     2     1    71    1
     3     2    28    2
     4     3    30    1
     5     3    72    1
     6     4    30    2
     7     5    31    2
     8     6     7    1
     9     6     8    1
    10     6     9    1
    11     6    12    1
    12     7     9    1
    13     7    13    1
    14     7    16    1
    15     8    10    1
    16     8    15    1
    17     8    36    1
    18     9    37    1
    19     9    38    1
    20    10    11    1
    21    10    19    1
    22    10    21    1
    23    11    14    1
    24    11    17    1
    25    11    22    1
    26    12    14    1
    27    12    39    1
    28    12    40    1
    29    13    18    1
    30    13    23    1
    31    13    41    1
    32    14    42    1
    33    14    43    1
    34    15    18    1
    35    15    44    1
    36    15    45    1
    37    16    25    1
    38    16    46    1
    39    16    47    1
    40    17    20    1
    41    17    24    1
    42    17    48    1
    43    18    49    1
    44    18    50    1
    45    19    20    1
    46    19    51    1
    47    19    52    1
    48    20    53    1
    49    20    54    1
    50    21    55    1
    51    21    56    1
    52    21    57    1
    53    22    58    1
    54    22    59    1
    55    22    60    1
    56    23    28    1
    57    23    29    2
    58    24    26    1
    59    24    27    1
    60    24    61    1
    61    25    30    1
    62    25    62    1
    63    25    63    1
    64    26    31    1
    65    26    64    1
    66    26    65    1
    67    27    66    1
    68    27    67    1
    69    27    68    1
    70    29    69    1
    71    29    70    1
    72    31    32    1
    73    32    33    2
    74    32    73    1
    75    33    34    1
    76    33    35    1
    77    34    74    1
    78    34    75    1
    79    34    76    1
    80    35    77    1
    81    35    78    1
    82    35    79    1
