@<TRIPOS>MOLECULE
IMPHY009997
 43 42 0 0 0
SMALL
GASTEIGER

@<TRIPOS>ATOM
      1 O           8.9282    0.4400    0.0000 O.3     1  UNL1       -0.4605
      2 O           9.7942   -1.0600    0.0000 O.2     1  UNL1       -0.2508
      3 C          11.5263   -0.0600    0.0000 C.3     1  UNL1       -0.0367
      4 C          10.6603    0.4400    0.0000 C.3     1  UNL1        0.0473
      5 C           5.4641    0.4400    0.0000 C.3     1  UNL1       -0.0285
      6 C           4.5981   -0.0600    0.0000 C.3     1  UNL1       -0.0308
      7 C          12.3923    0.4400    0.0000 C.3     1  UNL1       -0.0622
      8 C          11.5263   -1.0600    0.0000 C.3     1  UNL1       -0.0622
      9 C           6.3301   -0.0600    0.0000 C.2     1  UNL1       -0.0731
     10 C           9.7942   -0.0600    0.0000 C.2     1  UNL1        0.3076
     11 C           7.1962    0.4400    0.0000 C.2     1  UNL1       -0.0480
     12 C           8.0622   -0.0600    0.0000 C.3     1  UNL1        0.1109
     13 C           3.7320    0.4400    0.0000 C.2     1  UNL1       -0.0850
     14 C           6.3301   -1.0600    0.0000 C.3     1  UNL1       -0.0437
     15 C           2.8660   -0.0600    0.0000 C.2     1  UNL1       -0.0796
     16 C           2.0000    0.4400    0.0000 C.3     1  UNL1       -0.0440
     17 C           2.8660   -1.0600    0.0000 C.3     1  UNL1       -0.0440
     18 H          12.0632   -0.3700    0.0000 H       1  UNL1        0.0301
     19 H          11.0588    0.9149    0.0000 H       1  UNL1        0.0380
     20 H          10.2617    0.9149    0.0000 H       1  UNL1        0.0380
     21 H           5.8626    0.9149    0.0000 H       1  UNL1        0.0313
     22 H           5.0656    0.9149    0.0000 H       1  UNL1        0.0313
     23 H           4.1996   -0.5349    0.0000 H       1  UNL1        0.0310
     24 H           4.9966   -0.5349    0.0000 H       1  UNL1        0.0310
     25 H          12.7023   -0.0969    0.0000 H       1  UNL1        0.0232
     26 H          12.9292    0.7500    0.0000 H       1  UNL1        0.0232
     27 H          12.0823    0.9769    0.0000 H       1  UNL1        0.0232
     28 H          10.9063   -1.0600    0.0000 H       1  UNL1        0.0232
     29 H          11.5263   -1.6800    0.0000 H       1  UNL1        0.0232
     30 H          12.1463   -1.0600    0.0000 H       1  UNL1        0.0232
     31 H           7.1962    1.0600    0.0000 H       1  UNL1        0.0605
     32 H           7.6636   -0.5349    0.0000 H       1  UNL1        0.0743
     33 H           8.4607   -0.5349    0.0000 H       1  UNL1        0.0743
     34 H           3.7320    1.0600    0.0000 H       1  UNL1        0.0572
     35 H           5.7101   -1.0600    0.0000 H       1  UNL1        0.0274
     36 H           6.3301   -1.6800    0.0000 H       1  UNL1        0.0274
     37 H           6.9501   -1.0600    0.0000 H       1  UNL1        0.0274
     38 H           2.3100    0.9769    0.0000 H       1  UNL1        0.0274
     39 H           1.4631    0.7500    0.0000 H       1  UNL1        0.0274
     40 H           1.6900   -0.0969    0.0000 H       1  UNL1        0.0274
     41 H           2.2460   -1.0600    0.0000 H       1  UNL1        0.0274
     42 H           2.8660   -1.6800    0.0000 H       1  UNL1        0.0274
     43 H           3.4860   -1.0600    0.0000 H       1  UNL1        0.0274
@<TRIPOS>BOND
     1     1    10    1
     2     1    12    1
     3     2    10    2
     4     3     4    1
     5     3     7    1
     6     3     8    1
     7     3    18    1
     8     4    10    1
     9     4    19    1
    10     4    20    1
    11     5     6    1
    12     5     9    1
    13     5    21    1
    14     5    22    1
    15     6    13    1
    16     6    23    1
    17     6    24    1
    18     7    25    1
    19     7    26    1
    20     7    27    1
    21     8    28    1
    22     8    29    1
    23     8    30    1
    24     9    11    2
    25     9    14    1
    26    11    12    1
    27    11    31    1
    28    12    32    1
    29    12    33    1
    30    13    15    2
    31    13    34    1
    32    14    35    1
    33    14    36    1
    34    14    37    1
    35    15    16    1
    36    15    17    1
    37    16    38    1
    38    16    39    1
    39    16    40    1
    40    17    41    1
    41    17    42    1
    42    17    43    1
