@<TRIPOS>MOLECULE
IMPHY013144
 52 54 0 0 0
SMALL
GASTEIGER

@<TRIPOS>ATOM
      1 O           2.5381    0.0388    0.0000 O.3     1  UNL1       -0.3917
      2 O           6.9464    2.5839    0.0000 O.3     1  UNL1       -0.5065
      3 C           5.2022   -1.4854    0.0000 C.3     1  UNL1       -0.0260
      4 C           5.2022   -0.4854    0.0000 C.3     1  UNL1       -0.0010
      5 C           4.3083   -2.0200    0.0000 C.3     1  UNL1       -0.0289
      6 C           4.3083    0.0493    0.0000 C.3     1  UNL1       -0.0171
      7 C           3.4022   -1.5062    0.0000 C.3     1  UNL1       -0.0214
      8 C           6.0682   -1.9854    0.0000 C.3     1  UNL1       -0.0449
      9 C           3.4022   -0.4646    0.0000 C.3     1  UNL1        0.0566
     10 C           6.0682    0.0146    0.0000 C.ar    1  UNL1       -0.0345
     11 C           6.9343   -1.4854    0.0000 C.3     1  UNL1       -0.0271
     12 C           5.2022    0.5146    0.0000 C.3     1  UNL1       -0.0552
     13 C           3.8183   -2.8918    0.0000 C.3     1  UNL1       -0.0595
     14 C           4.8183   -2.8802    0.0000 C.3     1  UNL1       -0.0595
     15 C           6.9343   -0.4854    0.0000 C.ar    1  UNL1       -0.0432
     16 C           6.0522    1.0561    0.0000 C.ar    1  UNL1       -0.0159
     17 C           7.8443    0.0215    0.0000 C.ar    1  UNL1       -0.0514
     18 C           7.8523    1.0631    0.0000 C.ar    1  UNL1       -0.0031
     19 C           6.9502    1.5839    0.0000 C.ar    1  UNL1        0.1206
     20 C           8.7202    1.5597    0.0000 C.3     1  UNL1       -0.0181
     21 C           9.5844    1.0564    0.0000 C.3     1  UNL1       -0.0585
     22 C           8.7241    2.5597    0.0000 C.3     1  UNL1       -0.0585
     23 H           5.2088   -2.3354    0.0000 H       1  UNL1        0.0314
     24 H           4.7129    0.5191    0.0000 H       1  UNL1        0.0299
     25 H           3.9147    0.5283    0.0000 H       1  UNL1        0.0299
     26 H           2.7914   -1.4001    0.0000 H       1  UNL1        0.0295
     27 H           3.1932   -2.0899    0.0000 H       1  UNL1        0.0295
     28 H           5.6697   -2.4603    0.0000 H       1  UNL1        0.0271
     29 H           6.4668   -2.4603    0.0000 H       1  UNL1        0.0271
     30 H           2.8647   -0.7735    0.0000 H       1  UNL1        0.0594
     31 H           7.1463   -2.0680    0.0000 H       1  UNL1        0.0313
     32 H           7.5449   -1.3777    0.0000 H       1  UNL1        0.0313
     33 H           5.8222    0.5146    0.0000 H       1  UNL1        0.0238
     34 H           5.2022    1.1346    0.0000 H       1  UNL1        0.0238
     35 H           4.5822    0.5146    0.0000 H       1  UNL1        0.0238
     36 H           3.2778   -2.5880    0.0000 H       1  UNL1        0.0235
     37 H           3.5146   -3.4323    0.0000 H       1  UNL1        0.0235
     38 H           4.3588   -3.1956    0.0000 H       1  UNL1        0.0235
     39 H           4.2850   -3.1964    0.0000 H       1  UNL1        0.0235
     40 H           5.1344   -3.4136    0.0000 H       1  UNL1        0.0235
     41 H           5.3516   -2.5640    0.0000 H       1  UNL1        0.0235
     42 H           5.5117    1.3599    0.0000 H       1  UNL1        0.0657
     43 H           8.3776   -0.2947    0.0000 H       1  UNL1        0.0624
     44 H           2.0000   -0.2692    0.0000 H       1  UNL1        0.2098
     45 H           8.1845    1.8718    0.0000 H       1  UNL1        0.0345
     46 H           6.4082    2.8918    0.0000 H       1  UNL1        0.2921
     47 H           9.2723    0.5206    0.0000 H       1  UNL1        0.0235
     48 H          10.1201    0.7443    0.0000 H       1  UNL1        0.0235
     49 H           9.8964    1.5921    0.0000 H       1  UNL1        0.0235
     50 H           9.3441    2.5573    0.0000 H       1  UNL1        0.0235
     51 H           8.7265    3.1797    0.0000 H       1  UNL1        0.0235
     52 H           8.1041    2.5621    0.0000 H       1  UNL1        0.0235
@<TRIPOS>BOND
     1     9     1    1
     2     1    44    1
     3     2    19    1
     4     2    46    1
     5     3     4    1
     6     3     5    1
     7     3     8    1
     8     3    23    1
     9     4     6    1
    10     4    10    1
    11     4    12    1
    12     5     7    1
    13     5    13    1
    14     5    14    1
    15     6     9    1
    16     6    24    1
    17     6    25    1
    18     7     9    1
    19     7    26    1
    20     7    27    1
    21     8    11    1
    22     8    28    1
    23     8    29    1
    24     9    30    1
    25    10    15   ar
    26    10    16   ar
    27    11    15    1
    28    11    31    1
    29    11    32    1
    30    12    33    1
    31    12    34    1
    32    12    35    1
    33    13    36    1
    34    13    37    1
    35    13    38    1
    36    14    39    1
    37    14    40    1
    38    14    41    1
    39    15    17   ar
    40    16    19   ar
    41    16    42    1
    42    17    18   ar
    43    17    43    1
    44    18    19   ar
    45    18    20    1
    46    20    21    1
    47    20    22    1
    48    20    45    1
    49    21    47    1
    50    21    48    1
    51    21    49    1
    52    22    50    1
    53    22    51    1
    54    22    52    1
