@<TRIPOS>MOLECULE
IMPHY001846
 10 9 0 0 0
SMALL
GASTEIGER

@<TRIPOS>ATOM
      1 S           2.8660   -0.2500    0.0000 S.3     1  UNL1       -0.0968
      2 S           3.7320    0.2500    0.0000 S.3     1  UNL1       -0.0968
      3 C           2.0000    0.2500    0.0000 C.3     1  UNL1       -0.0078
      4 C           4.5981   -0.2500    0.0000 C.3     1  UNL1       -0.0078
      5 H           2.3100    0.7869    0.0000 H       1  UNL1        0.0349
      6 H           1.4631    0.5600    0.0000 H       1  UNL1        0.0349
      7 H           1.6900   -0.2869    0.0000 H       1  UNL1        0.0349
      8 H           4.2881   -0.7869    0.0000 H       1  UNL1        0.0349
      9 H           5.1350   -0.5600    0.0000 H       1  UNL1        0.0349
     10 H           4.9081    0.2869    0.0000 H       1  UNL1        0.0349
@<TRIPOS>BOND
     1     1     2    1
     2     1     3    1
     3     2     4    1
     4     3     5    1
     5     3     6    1
     6     3     7    1
     7     4     8    1
     8     4     9    1
     9     4    10    1
