@<TRIPOS>MOLECULE
IMPHY017858
 44 46 0 0 0
SMALL
GASTEIGER

@<TRIPOS>ATOM
      1 O           7.2926   -0.0498    0.0000 O.2     1  UNL1       -0.4957
      2 O           3.7319   -1.2796    0.0000 O.3     1  UNL1       -0.4607
      3 O           2.0000   -1.2997    0.0000 O.2     1  UNL1       -0.2512
      4 C           4.6143    0.2550    0.0000 C.3     1  UNL1        0.0151
      5 C           4.6143    1.2550    0.0000 C.3     1  UNL1       -0.0106
      6 C           5.4803   -0.2450    0.0000 C.3     1  UNL1       -0.0059
      7 C           6.3464    1.2550    0.0000 C.3     1  UNL1        0.0205
      8 C           6.3464    0.2550    0.0000 C.3     1  UNL1        0.1065
      9 C           5.4803    1.7550    0.0000 C.3     1  UNL1       -0.0359
     10 C           3.7204   -0.2797    0.0000 C.3     1  UNL1        0.1124
     11 C           3.7204    1.7896    0.0000 C.2     1  UNL1       -0.0727
     12 C           4.6143   -0.7450    0.0000 C.3     1  UNL1       -0.0555
     13 C           2.8143    0.2341    0.0000 C.3     1  UNL1        0.0033
     14 C           7.2926    1.5597    0.0000 C.2     1  UNL1       -0.0318
     15 C           2.8143    1.2758    0.0000 C.2     1  UNL1       -0.0812
     16 C           7.8762    0.7550    0.0000 C.2     1  UNL1        0.0843
     17 C           3.7319    2.7896    0.0000 C.3     1  UNL1       -0.0435
     18 C           7.6032    2.5102    0.0000 C.3     1  UNL1       -0.0403
     19 C           2.8718   -1.7896    0.0000 C.2     1  UNL1        0.3042
     20 C           2.8833   -2.7896    0.0000 C.3     1  UNL1        0.0332
     21 H           4.6191    1.8749    0.0000 H       1  UNL1        0.0352
     22 H           5.0818   -0.7200    0.0000 H       1  UNL1        0.0308
     23 H           5.8789   -0.7200    0.0000 H       1  UNL1        0.0308
     24 H           6.4120    1.8715    0.0000 H       1  UNL1        0.0383
     25 H           6.4120   -0.3616    0.0000 H       1  UNL1        0.0739
     26 H           5.8789    2.2299    0.0000 H       1  UNL1        0.0278
     27 H           5.0818    2.2299    0.0000 H       1  UNL1        0.0278
     28 H           3.1864   -0.5949    0.0000 H       1  UNL1        0.0742
     29 H           3.9943   -0.7450    0.0000 H       1  UNL1        0.0236
     30 H           4.6143   -1.3650    0.0000 H       1  UNL1        0.0236
     31 H           5.2343   -0.7450    0.0000 H       1  UNL1        0.0236
     32 H           2.2034    0.3402    0.0000 H       1  UNL1        0.0343
     33 H           2.6052   -0.3496    0.0000 H       1  UNL1        0.0343
     34 H           2.2786    1.5878    0.0000 H       1  UNL1        0.0573
     35 H           8.4962    0.7550    0.0000 H       1  UNL1        0.1023
     36 H           4.3519    2.7824    0.0000 H       1  UNL1        0.0274
     37 H           3.7391    3.4095    0.0000 H       1  UNL1        0.0274
     38 H           3.1120    2.7967    0.0000 H       1  UNL1        0.0274
     39 H           8.1926    2.3176    0.0000 H       1  UNL1        0.0275
     40 H           7.7959    3.0995    0.0000 H       1  UNL1        0.0275
     41 H           7.0139    2.7028    0.0000 H       1  UNL1        0.0275
     42 H           2.2634   -2.7967    0.0000 H       1  UNL1        0.0342
     43 H           2.8905   -3.4095    0.0000 H       1  UNL1        0.0342
     44 H           3.5033   -2.7824    0.0000 H       1  UNL1        0.0342
@<TRIPOS>BOND
     1     1     8    1
     2     1    16    1
     3    10     2    1
     4     2    19    1
     5     3    19    2
     6     4     5    1
     7     4     6    1
     8     4    10    1
     9     4    12    1
    10     5     9    1
    11     5    11    1
    12     5    21    1
    13     6     8    1
    14     6    22    1
    15     6    23    1
    16     7     8    1
    17     7     9    1
    18     7    14    1
    19     7    24    1
    20     8    25    1
    21     9    26    1
    22     9    27    1
    23    10    13    1
    24    10    28    1
    25    11    15    2
    26    11    17    1
    27    12    29    1
    28    12    30    1
    29    12    31    1
    30    13    15    1
    31    13    32    1
    32    13    33    1
    33    14    16    2
    34    14    18    1
    35    15    34    1
    36    16    35    1
    37    17    36    1
    38    17    37    1
    39    17    38    1
    40    18    39    1
    41    18    40    1
    42    18    41    1
    43    19    20    1
    44    20    42    1
    45    20    43    1
    46    20    44    1
