@<TRIPOS>MOLECULE
IMPHY016827
 49 52 0 0 0
SMALL
GASTEIGER

@<TRIPOS>ATOM
      1 O           9.1857    2.1767    0.0000 O.2     1  UNL1       -0.2968
      2 O           2.5357   -2.1309    0.0000 O.3     1  UNL1       -0.3915
      3 C           6.1968   -0.0785    0.0000 C.3     1  UNL1       -0.0285
      4 C           7.0628   -0.5785    0.0000 C.3     1  UNL1       -0.0303
      5 C           7.9288   -0.0785    0.0000 C.3     1  UNL1       -0.0252
      6 C           7.9288    0.9215    0.0000 C.3     1  UNL1        0.0293
      7 C           5.2868   -0.5854    0.0000 C.3     1  UNL1       -0.0078
      8 C           6.1968    0.9215    0.0000 C.3     1  UNL1       -0.0483
      9 C           7.0628    1.4215    0.0000 C.3     1  UNL1       -0.0404
     10 C           8.8750   -0.3833    0.0000 C.3     1  UNL1       -0.0424
     11 C           7.0789   -1.6200    0.0000 C.3     1  UNL1       -0.0311
     12 C           5.2787   -1.6270    0.0000 C.2     1  UNL1       -0.0648
     13 C           4.3599   -0.0213    0.0000 C.3     1  UNL1       -0.0413
     14 C           8.8750    1.2262    0.0000 C.2     1  UNL1        0.1395
     15 C           9.4586    0.4215    0.0000 C.3     1  UNL1        0.0067
     16 C           6.1808   -2.1478    0.0000 C.2     1  UNL1       -0.0839
     17 C           7.9288    1.9215    0.0000 C.3     1  UNL1       -0.0526
     18 C           5.2945    0.4146    0.0000 C.3     1  UNL1       -0.0556
     19 C           4.3433   -2.1767    0.0000 C.3     1  UNL1       -0.0051
     20 C           3.4120   -0.5493    0.0000 C.3     1  UNL1       -0.0258
     21 C           3.4037   -1.6342    0.0000 C.3     1  UNL1        0.0590
     22 H           6.9329    0.3465    0.0000 H       1  UNL1        0.0312
     23 H           7.8022   -0.9979    0.0000 H       1  UNL1        0.0310
     24 H           8.0188   -0.9238    0.0000 H       1  UNL1        0.0313
     25 H           5.9847    1.5041    0.0000 H       1  UNL1        0.0269
     26 H           5.5862    0.8138    0.0000 H       1  UNL1        0.0269
     27 H           7.4613    1.8964    0.0000 H       1  UNL1        0.0275
     28 H           6.6643    1.8964    0.0000 H       1  UNL1        0.0275
     29 H           8.6240   -0.9502    0.0000 H       1  UNL1        0.0272
     30 H           9.4124   -0.6925    0.0000 H       1  UNL1        0.0272
     31 H           7.2969   -2.2004    0.0000 H       1  UNL1        0.0310
     32 H           7.6880   -1.5046    0.0000 H       1  UNL1        0.0310
     33 H           4.7681    0.4454    0.0000 H       1  UNL1        0.0274
     34 H           3.9700    0.4607    0.0000 H       1  UNL1        0.0274
     35 H           9.9195    0.0067    0.0000 H       1  UNL1        0.0342
     36 H           9.9195    0.8362    0.0000 H       1  UNL1        0.0342
     37 H           6.1832   -2.7678    0.0000 H       1  UNL1        0.0572
     38 H           8.5488    1.9215    0.0000 H       1  UNL1        0.0239
     39 H           7.9288    2.5415    0.0000 H       1  UNL1        0.0239
     40 H           7.3088    1.9215    0.0000 H       1  UNL1        0.0239
     41 H           5.9145    0.4098    0.0000 H       1  UNL1        0.0238
     42 H           5.2993    1.0346    0.0000 H       1  UNL1        0.0238
     43 H           4.6745    0.4194    0.0000 H       1  UNL1        0.0238
     44 H           3.9460   -2.6527    0.0000 H       1  UNL1        0.0335
     45 H           4.7443   -2.6496    0.0000 H       1  UNL1        0.0335
     46 H           3.2075    0.0360    0.0000 H       1  UNL1        0.0290
     47 H           2.8004   -0.6506    0.0000 H       1  UNL1        0.0290
     48 H           2.8686   -1.3211    0.0000 H       1  UNL1        0.0596
     49 H           2.0000   -1.8188    0.0000 H       1  UNL1        0.2098
@<TRIPOS>BOND
     1     1    14    2
     2    21     2    1
     3     2    49    1
     4     3     4    1
     5     3     7    1
     6     3     8    1
     7     3    22    1
     8     4     5    1
     9     4    11    1
    10     4    23    1
    11     5     6    1
    12     5    10    1
    13     5    24    1
    14     6     9    1
    15     6    14    1
    16     6    17    1
    17     7    12    1
    18     7    13    1
    19     7    18    1
    20     8     9    1
    21     8    25    1
    22     8    26    1
    23     9    27    1
    24     9    28    1
    25    10    15    1
    26    10    29    1
    27    10    30    1
    28    11    16    1
    29    11    31    1
    30    11    32    1
    31    12    16    2
    32    12    19    1
    33    13    20    1
    34    13    33    1
    35    13    34    1
    36    14    15    1
    37    15    35    1
    38    15    36    1
    39    16    37    1
    40    17    38    1
    41    17    39    1
    42    17    40    1
    43    18    41    1
    44    18    42    1
    45    18    43    1
    46    19    21    1
    47    19    44    1
    48    19    45    1
    49    20    21    1
    50    20    46    1
    51    20    47    1
    52    21    48    1
