@<TRIPOS>MOLECULE
IMPHY008632
 46 47 0 0 0
SMALL
GASTEIGER

@<TRIPOS>ATOM
      1 O           3.7320   -1.0000    0.0000 O.3     1  UNL1       -0.4615
      2 O           7.1962   -2.0000    0.0000 O.2     1  UNL1       -0.5056
      3 O           8.9446   -2.0346    0.0000 O.3     1  UNL1       -0.4907
      4 O           8.9446    2.0346    0.0000 O.3     1  UNL1       -0.4943
      5 O          10.7263   -1.0241    0.0000 O.3     1  UNL1       -0.4913
      6 O           5.4641    1.0000    0.0000 O.2     1  UNL1       -0.2834
      7 O           7.1962    2.0000    0.0000 O.2     1  UNL1       -0.2830
      8 O           2.8660    0.5000    0.0000 O.2     1  UNL1       -0.2512
      9 C           5.4641   -1.0000    0.0000 C.3     1  UNL1        0.0166
     10 C           6.3301   -0.5000    0.0000 C.2     1  UNL1        0.0487
     11 C           8.0622   -0.5000    0.0000 C.ar    1  UNL1        0.0765
     12 C           4.5981   -0.5000    0.0000 C.3     1  UNL1        0.1045
     13 C           8.0622    0.5000    0.0000 C.ar    1  UNL1        0.0815
     14 C           7.1962   -1.0000    0.0000 C.2     1  UNL1        0.1354
     15 C           6.3301    0.5000    0.0000 C.2     1  UNL1        0.2327
     16 C           7.1962    1.0000    0.0000 C.2     1  UNL1        0.2370
     17 C           8.9561   -1.0347    0.0000 C.ar    1  UNL1        0.1730
     18 C           8.9561    1.0347    0.0000 C.ar    1  UNL1        0.1354
     19 C           4.5981    0.5000    0.0000 C.3     1  UNL1       -0.0274
     20 C           9.8622   -0.5208    0.0000 C.ar    1  UNL1        0.1657
     21 C           9.8622    0.5208    0.0000 C.ar    1  UNL1        0.0262
     22 C           2.8660   -0.5000    0.0000 C.2     1  UNL1        0.3042
     23 C           9.8047   -2.5446    0.0000 C.3     1  UNL1        0.0790
     24 C           9.8047    2.5446    0.0000 C.3     1  UNL1        0.0788
     25 C          11.5942   -0.5275    0.0000 C.3     1  UNL1        0.0790
     26 C           2.0000   -1.0000    0.0000 C.3     1  UNL1        0.0332
     27 H           5.0656   -1.4750    0.0000 H       1  UNL1        0.0351
     28 H           5.8626   -1.4750    0.0000 H       1  UNL1        0.0351
     29 H           4.5981   -1.1200    0.0000 H       1  UNL1        0.0734
     30 H           5.2181    0.5000    0.0000 H       1  UNL1        0.0265
     31 H           4.5981    1.1200    0.0000 H       1  UNL1        0.0265
     32 H           3.9781    0.5000    0.0000 H       1  UNL1        0.0265
     33 H          10.3979    0.8329    0.0000 H       1  UNL1        0.0692
     34 H           6.6592   -2.3100    0.0000 H       1  UNL1        0.2922
     35 H           9.4886   -3.0779    0.0000 H       1  UNL1        0.0660
     36 H          10.3381   -2.8608    0.0000 H       1  UNL1        0.0660
     37 H          10.1209   -2.0113    0.0000 H       1  UNL1        0.0660
     38 H          10.1209    2.0113    0.0000 H       1  UNL1        0.0660
     39 H          10.3381    2.8608    0.0000 H       1  UNL1        0.0660
     40 H           9.4886    3.0779    0.0000 H       1  UNL1        0.0660
     41 H          11.9022   -1.0656    0.0000 H       1  UNL1        0.0660
     42 H          12.1324   -0.2196    0.0000 H       1  UNL1        0.0660
     43 H          11.2863    0.0106    0.0000 H       1  UNL1        0.0660
     44 H           1.6900   -0.4631    0.0000 H       1  UNL1        0.0342
     45 H           1.4631   -1.3100    0.0000 H       1  UNL1        0.0342
     46 H           2.3100   -1.5369    0.0000 H       1  UNL1        0.0342
@<TRIPOS>BOND
     1     1    12    1
     2     1    22    1
     3     2    14    1
     4     2    34    1
     5     3    17    1
     6     3    23    1
     7     4    18    1
     8     4    24    1
     9     5    20    1
    10     5    25    1
    11     6    15    2
    12     7    16    2
    13     8    22    2
    14     9    10    1
    15     9    12    1
    16     9    27    1
    17     9    28    1
    18    10    14    2
    19    10    15    1
    20    11    13   ar
    21    11    14    1
    22    11    17   ar
    23    12    19    1
    24    12    29    1
    25    13    16    1
    26    13    18   ar
    27    15    16    1
    28    17    20   ar
    29    18    21   ar
    30    19    30    1
    31    19    31    1
    32    19    32    1
    33    20    21   ar
    34    21    33    1
    35    22    26    1
    36    23    35    1
    37    23    36    1
    38    23    37    1
    39    24    38    1
    40    24    39    1
    41    24    40    1
    42    25    41    1
    43    25    42    1
    44    25    43    1
    45    26    44    1
    46    26    45    1
    47    26    46    1
