@<TRIPOS>MOLECULE
IMPHY017480
 39 40 0 0 0
SMALL
GASTEIGER

@<TRIPOS>ATOM
      1 N           2.0000    0.0000    0.0000 N.1     1  UNL1       -0.1949
      2 N           6.0000    0.0000    0.0000 N.1     1  UNL1       -0.1949
      3 C           4.0000   -1.0000    0.0000 C.3     1  UNL1       -0.0092
      4 C           4.0000    1.0000    0.0000 C.3     1  UNL1       -0.0092
      5 C           4.0000    0.0000    0.0000 C.3     1  UNL1        0.1484
      6 C           3.1340   -1.5000    0.0000 C.3     1  UNL1       -0.0478
      7 C           4.8660   -1.5000    0.0000 C.3     1  UNL1       -0.0478
      8 C           4.8660    1.5000    0.0000 C.3     1  UNL1       -0.0478
      9 C           3.1340    1.5000    0.0000 C.3     1  UNL1       -0.0478
     10 C           3.1340   -2.5000    0.0000 C.3     1  UNL1       -0.0527
     11 C           4.8660   -2.5000    0.0000 C.3     1  UNL1       -0.0527
     12 C           4.8660    2.5000    0.0000 C.3     1  UNL1       -0.0527
     13 C           3.1340    2.5000    0.0000 C.3     1  UNL1       -0.0527
     14 C           4.0000   -3.0000    0.0000 C.3     1  UNL1       -0.0530
     15 C           4.0000    3.0000    0.0000 C.3     1  UNL1       -0.0530
     16 C           3.0000    0.0000    0.0000 C.1     1  UNL1        0.0848
     17 C           5.0000    0.0000    0.0000 C.1     1  UNL1        0.0848
     18 H           4.5369   -0.6900    0.0000 H       1  UNL1        0.0326
     19 H           4.5369    0.6900    0.0000 H       1  UNL1        0.0326
     20 H           2.9219   -0.9174    0.0000 H       1  UNL1        0.0269
     21 H           2.5234   -1.6077    0.0000 H       1  UNL1        0.0269
     22 H           5.4766   -1.6077    0.0000 H       1  UNL1        0.0269
     23 H           5.0781   -0.9174    0.0000 H       1  UNL1        0.0269
     24 H           5.0781    0.9174    0.0000 H       1  UNL1        0.0269
     25 H           5.4766    1.6077    0.0000 H       1  UNL1        0.0269
     26 H           2.5234    1.6077    0.0000 H       1  UNL1        0.0269
     27 H           2.9219    0.9174    0.0000 H       1  UNL1        0.0269
     28 H           2.5234   -2.3923    0.0000 H       1  UNL1        0.0265
     29 H           2.9219   -3.0826    0.0000 H       1  UNL1        0.0265
     30 H           5.0781   -3.0826    0.0000 H       1  UNL1        0.0265
     31 H           5.4766   -2.3923    0.0000 H       1  UNL1        0.0265
     32 H           5.4766    2.3923    0.0000 H       1  UNL1        0.0265
     33 H           5.0781    3.0826    0.0000 H       1  UNL1        0.0265
     34 H           2.9219    3.0826    0.0000 H       1  UNL1        0.0265
     35 H           2.5234    2.3923    0.0000 H       1  UNL1        0.0265
     36 H           3.6015   -3.4750    0.0000 H       1  UNL1        0.0265
     37 H           4.3985   -3.4750    0.0000 H       1  UNL1        0.0265
     38 H           4.3985    3.4750    0.0000 H       1  UNL1        0.0265
     39 H           3.6015    3.4750    0.0000 H       1  UNL1        0.0265
@<TRIPOS>BOND
     1     1    16    3
     2     2    17    3
     3     3     5    1
     4     3     6    1
     5     3     7    1
     6     3    18    1
     7     4     5    1
     8     4     8    1
     9     4     9    1
    10     4    19    1
    11     5    16    1
    12     5    17    1
    13     6    10    1
    14     6    20    1
    15     6    21    1
    16     7    11    1
    17     7    22    1
    18     7    23    1
    19     8    12    1
    20     8    24    1
    21     8    25    1
    22     9    13    1
    23     9    26    1
    24     9    27    1
    25    10    14    1
    26    10    28    1
    27    10    29    1
    28    11    14    1
    29    11    30    1
    30    11    31    1
    31    12    15    1
    32    12    32    1
    33    12    33    1
    34    13    15    1
    35    13    34    1
    36    13    35    1
    37    14    36    1
    38    14    37    1
    39    15    38    1
    40    15    39    1
