@<TRIPOS>MOLECULE
IMPHY014075
 39 41 0 0 0
SMALL
GASTEIGER

@<TRIPOS>ATOM
      1 O           6.0682   -0.2704    0.0000 O.2     1  UNL1       -0.4507
      2 O           7.8003    1.7296    0.0000 O.3     1  UNL1       -0.4883
      3 O           4.3198    2.7642    0.0000 O.3     1  UNL1       -0.5027
      4 O           6.0682    2.7296    0.0000 O.2     1  UNL1       -0.2830
      5 O           2.5381    1.7538    0.0000 O.3     1  UNL1       -0.5009
      6 O           2.5381   -0.2945    0.0000 O.3     1  UNL1       -0.5031
      7 O          10.3984   -1.7704    0.0000 O.3     1  UNL1       -0.4915
      8 O           8.6663   -2.7704    0.0000 O.3     1  UNL1       -0.5033
      9 C           5.2022    1.2296    0.0000 C.ar    1  UNL1        0.1128
     10 C           6.9343    0.2296    0.0000 C.ar    1  UNL1        0.1809
     11 C           5.2022    0.2296    0.0000 C.ar    1  UNL1        0.1468
     12 C           6.9343    1.2296    0.0000 C.ar    1  UNL1        0.2107
     13 C           7.8003   -0.2704    0.0000 C.ar    1  UNL1        0.0247
     14 C           6.0682    1.7296    0.0000 C.ar    1  UNL1        0.2382
     15 C           4.3083    1.7643    0.0000 C.ar    1  UNL1        0.1767
     16 C           4.3083   -0.3051    0.0000 C.ar    1  UNL1        0.0268
     17 C           3.4022    1.2504    0.0000 C.ar    1  UNL1        0.2015
     18 C           3.4022    0.2088    0.0000 C.ar    1  UNL1        0.1655
     19 C           7.8003   -1.2704    0.0000 C.ar    1  UNL1       -0.0057
     20 C           8.6663    0.2296    0.0000 C.ar    1  UNL1       -0.0473
     21 C           8.6663   -1.7704    0.0000 C.ar    1  UNL1        0.1591
     22 C           9.5323   -0.2704    0.0000 C.ar    1  UNL1       -0.0156
     23 C           9.5323   -1.2704    0.0000 C.ar    1  UNL1        0.1613
     24 C           7.8003    2.7296    0.0000 C.3     1  UNL1        0.0791
     25 C          11.2644   -1.2704    0.0000 C.3     1  UNL1        0.0790
     26 H           4.3154   -0.9250    0.0000 H       1  UNL1        0.0692
     27 H           7.2634   -1.5804    0.0000 H       1  UNL1        0.0662
     28 H           8.6663    0.8496    0.0000 H       1  UNL1        0.0626
     29 H          10.0693    0.0396    0.0000 H       1  UNL1        0.0655
     30 H           3.7865    3.0804    0.0000 H       1  UNL1        0.2923
     31 H           8.4203    2.7296    0.0000 H       1  UNL1        0.0660
     32 H           7.8003    3.3496    0.0000 H       1  UNL1        0.0660
     33 H           7.1803    2.7296    0.0000 H       1  UNL1        0.0660
     34 H           2.0000    1.4458    0.0000 H       1  UNL1        0.2924
     35 H           2.5405   -0.9145    0.0000 H       1  UNL1        0.2923
     36 H           9.2033   -3.0804    0.0000 H       1  UNL1        0.2923
     37 H          11.5744   -1.8073    0.0000 H       1  UNL1        0.0660
     38 H          11.8013   -0.9604    0.0000 H       1  UNL1        0.0660
     39 H          10.9544   -0.7335    0.0000 H       1  UNL1        0.0660
@<TRIPOS>BOND
     1     1    10   ar
     2     1    11   ar
     3     2    12    1
     4     2    24    1
     5     3    15    1
     6     3    30    1
     7     4    14    2
     8     5    17    1
     9     5    34    1
    10     6    18    1
    11     6    35    1
    12     7    23    1
    13     7    25    1
    14     8    21    1
    15     8    36    1
    16     9    11   ar
    17     9    14   ar
    18     9    15   ar
    19    10    12   ar
    20    10    13    1
    21    11    16   ar
    22    12    14   ar
    23    13    19   ar
    24    13    20   ar
    25    15    17   ar
    26    16    18   ar
    27    16    26    1
    28    17    18   ar
    29    19    21   ar
    30    19    27    1
    31    20    22   ar
    32    20    28    1
    33    21    23   ar
    34    22    23   ar
    35    22    29    1
    36    24    31    1
    37    24    32    1
    38    24    33    1
    39    25    37    1
    40    25    38    1
    41    25    39    1
