@<TRIPOS>MOLECULE
IMPHY007328
 56 58 0 0 0
SMALL
GASTEIGER

@<TRIPOS>ATOM
      1 O           7.2506   -0.7692    0.0000 O.3     1  UNL1       -0.4855
      2 O           5.5022    2.2654    0.0000 O.3     1  UNL1       -0.5055
      3 O           2.8525    0.7583    0.0000 O.3     1  UNL1       -0.4770
      4 O           3.7243    2.2549    0.0000 O.2     1  UNL1       -0.2450
      5 C           8.1166    0.7308    0.0000 C.3     1  UNL1        0.0091
      6 C           7.2506    1.2308    0.0000 C.3     1  UNL1        0.0158
      7 C           8.1166   -0.2692    0.0000 C.3     1  UNL1        0.1087
      8 C           9.0266    1.2376    0.0000 C.3     1  UNL1       -0.0421
      9 C           6.3846    0.7308    0.0000 C.ar    1  UNL1        0.0436
     10 C           9.0347    2.2792    0.0000 C.3     1  UNL1       -0.0316
     11 C           7.2345    2.2723    0.0000 C.2     1  UNL1       -0.0770
     12 C           8.1326    2.8000    0.0000 C.2     1  UNL1       -0.0759
     13 C           6.3846   -0.2692    0.0000 C.ar    1  UNL1        0.1288
     14 C           8.6166   -1.1353    0.0000 C.3     1  UNL1       -0.0249
     15 C           9.1166   -0.2692    0.0000 C.3     1  UNL1       -0.0249
     16 C           5.4906    1.2654    0.0000 C.ar    1  UNL1        0.1383
     17 C           5.4906   -0.8039    0.0000 C.ar    1  UNL1       -0.0154
     18 C           4.5846   -0.2900    0.0000 C.ar    1  UNL1       -0.0264
     19 C           8.1287    3.8000    0.0000 C.3     1  UNL1       -0.0438
     20 C           4.5846    0.7516    0.0000 C.ar    1  UNL1        0.1038
     21 C           3.7205   -0.7934    0.0000 C.3     1  UNL1       -0.0267
     22 C           3.7243   -1.7934    0.0000 C.3     1  UNL1       -0.0490
     23 C           3.7205    1.2549    0.0000 C.2     1  UNL1        0.3406
     24 C           2.8602   -2.2967    0.0000 C.3     1  UNL1       -0.0530
     25 C           2.8641   -3.2967    0.0000 C.3     1  UNL1       -0.0559
     26 C           2.0000   -3.8000    0.0000 C.3     1  UNL1       -0.0653
     27 H           8.8494    0.3001    0.0000 H       1  UNL1        0.0348
     28 H           7.9834    1.6614    0.0000 H       1  UNL1        0.0398
     29 H           9.2312    0.6523    0.0000 H       1  UNL1        0.0272
     30 H           9.6383    1.3390    0.0000 H       1  UNL1        0.0272
     31 H           9.6447    2.1684    0.0000 H       1  UNL1        0.0310
     32 H           9.2482    2.8613    0.0000 H       1  UNL1        0.0310
     33 H           6.6941    2.5760    0.0000 H       1  UNL1        0.0578
     34 H           9.1166   -0.8892    0.0000 H       1  UNL1        0.0268
     35 H           9.7366   -0.2692    0.0000 H       1  UNL1        0.0268
     36 H           8.0797   -1.4452    0.0000 H       1  UNL1        0.0268
     37 H           8.9266   -1.6722    0.0000 H       1  UNL1        0.0268
     38 H           9.1536   -0.8252    0.0000 H       1  UNL1        0.0268
     39 H           9.1166    0.3508    0.0000 H       1  UNL1        0.0268
     40 H           5.4978   -1.4238    0.0000 H       1  UNL1        0.0657
     41 H           8.7487    3.8024    0.0000 H       1  UNL1        0.0274
     42 H           8.1263    4.4200    0.0000 H       1  UNL1        0.0274
     43 H           7.5087    3.7976    0.0000 H       1  UNL1        0.0274
     44 H           3.5062   -0.2116    0.0000 H       1  UNL1        0.0313
     45 H           3.1103   -0.9034    0.0000 H       1  UNL1        0.0313
     46 H           3.9386   -2.3752    0.0000 H       1  UNL1        0.0268
     47 H           4.3345   -1.6834    0.0000 H       1  UNL1        0.0268
     48 H           4.9689    2.5816    0.0000 H       1  UNL1        0.2922
     49 H           2.6459   -1.7149    0.0000 H       1  UNL1        0.0265
     50 H           2.2501   -2.4067    0.0000 H       1  UNL1        0.0265
     51 H           3.0784   -3.8785    0.0000 H       1  UNL1        0.0263
     52 H           3.4742   -3.1867    0.0000 H       1  UNL1        0.0263
     53 H           2.3168    1.0703    0.0000 H       1  UNL1        0.2954
     54 H           1.6879   -3.2643    0.0000 H       1  UNL1        0.0230
     55 H           1.4643   -4.1121    0.0000 H       1  UNL1        0.0230
     56 H           2.3121   -4.3358    0.0000 H       1  UNL1        0.0230
@<TRIPOS>BOND
     1     1     7    1
     2     1    13    1
     3     2    16    1
     4     2    48    1
     5     3    23    1
     6     3    53    1
     7     4    23    2
     8     5     6    1
     9     5     7    1
    10     5     8    1
    11     5    27    1
    12     6     9    1
    13     6    11    1
    14     6    28    1
    15     7    14    1
    16     7    15    1
    17     8    10    1
    18     8    29    1
    19     8    30    1
    20     9    13   ar
    21     9    16   ar
    22    10    12    1
    23    10    31    1
    24    10    32    1
    25    11    12    2
    26    11    33    1
    27    12    19    1
    28    13    17   ar
    29    14    36    1
    30    14    37    1
    31    14    38    1
    32    15    34    1
    33    15    35    1
    34    15    39    1
    35    16    20   ar
    36    17    18   ar
    37    17    40    1
    38    18    20   ar
    39    18    21    1
    40    19    41    1
    41    19    42    1
    42    19    43    1
    43    20    23    1
    44    21    22    1
    45    21    44    1
    46    21    45    1
    47    22    24    1
    48    22    46    1
    49    22    47    1
    50    24    25    1
    51    24    49    1
    52    24    50    1
    53    25    26    1
    54    25    51    1
    55    25    52    1
    56    26    54    1
    57    26    55    1
    58    26    56    1
