@<TRIPOS>MOLECULE
IMPHY015608
 32 31 0 0 0
SMALL
GASTEIGER

@<TRIPOS>ATOM
      1 O           8.9282    0.7500    0.0000 O.3     1  UNL1       -0.4618
      2 O           3.7320    0.7500    0.0000 O.3     1  UNL1       -0.4649
      3 O           4.5981   -0.7500    0.0000 O.2     1  UNL1       -0.2509
      4 O           9.7942   -0.7500    0.0000 O.2     1  UNL1       -0.2512
      5 C           7.1962    0.7500    0.0000 C.3     1  UNL1       -0.0154
      6 C           6.3301    0.2500    0.0000 C.3     1  UNL1       -0.0396
      7 C           8.0622    0.2500    0.0000 C.3     1  UNL1        0.1003
      8 C           5.4641    0.7500    0.0000 C.3     1  UNL1        0.0451
      9 C           8.0622   -0.7500    0.0000 C.3     1  UNL1       -0.0277
     10 C           4.5981    0.2500    0.0000 C.2     1  UNL1        0.3071
     11 C           9.7942    0.2500    0.0000 C.2     1  UNL1        0.3042
     12 C           2.8660    0.2500    0.0000 C.3     1  UNL1        0.0896
     13 C          10.6603    0.7500    0.0000 C.3     1  UNL1        0.0332
     14 C           2.0000    0.7500    0.0000 C.3     1  UNL1       -0.0306
     15 H           7.5947    1.2250    0.0000 H       1  UNL1        0.0301
     16 H           6.7976    1.2250    0.0000 H       1  UNL1        0.0301
     17 H           5.9316   -0.2249    0.0000 H       1  UNL1        0.0272
     18 H           6.7287   -0.2249    0.0000 H       1  UNL1        0.0272
     19 H           8.0622    0.8700    0.0000 H       1  UNL1        0.0731
     20 H           5.8626    1.2250    0.0000 H       1  UNL1        0.0377
     21 H           5.0656    1.2250    0.0000 H       1  UNL1        0.0377
     22 H           7.4422   -0.7500    0.0000 H       1  UNL1        0.0265
     23 H           8.0622   -1.3700    0.0000 H       1  UNL1        0.0265
     24 H           8.6822   -0.7500    0.0000 H       1  UNL1        0.0265
     25 H           2.4675   -0.2249    0.0000 H       1  UNL1        0.0694
     26 H           3.2646   -0.2249    0.0000 H       1  UNL1        0.0694
     27 H          10.9703    0.2131    0.0000 H       1  UNL1        0.0342
     28 H          11.1972    1.0600    0.0000 H       1  UNL1        0.0342
     29 H          10.3503    1.2869    0.0000 H       1  UNL1        0.0342
     30 H           2.3100    1.2869    0.0000 H       1  UNL1        0.0262
     31 H           1.4631    1.0600    0.0000 H       1  UNL1        0.0262
     32 H           1.6900    0.2131    0.0000 H       1  UNL1        0.0262
@<TRIPOS>BOND
     1     1     7    1
     2     1    11    1
     3     2    10    1
     4     2    12    1
     5     3    10    2
     6     4    11    2
     7     5     6    1
     8     5     7    1
     9     5    15    1
    10     5    16    1
    11     6     8    1
    12     6    17    1
    13     6    18    1
    14     7     9    1
    15     7    19    1
    16     8    10    1
    17     8    20    1
    18     8    21    1
    19     9    22    1
    20     9    23    1
    21     9    24    1
    22    11    13    1
    23    12    14    1
    24    12    25    1
    25    12    26    1
    26    13    27    1
    27    13    28    1
    28    13    29    1
    29    14    30    1
    30    14    31    1
    31    14    32    1
