@<TRIPOS>MOLECULE
IMPHY001971
 16 15 0 0 0
SMALL
GASTEIGER

@<TRIPOS>ATOM
      1 O           2.5369    1.0000    0.0000 O.3     1  UNL1       -0.3878
      2 C           4.2690    1.0000    0.0000 C.3     1  UNL1       -0.0261
      3 C           3.4030    0.5000    0.0000 C.3     1  UNL1        0.0729
      4 C           5.1350    0.5000    0.0000 C.3     1  UNL1       -0.0626
      5 C           3.4030   -0.5000    0.0000 C.2     1  UNL1       -0.0630
      6 C           2.5369   -1.0000    0.0000 C.2     1  UNL1       -0.1002
      7 H           4.6675    1.4750    0.0000 H       1  UNL1        0.0291
      8 H           3.8705    1.4750    0.0000 H       1  UNL1        0.0291
      9 H           3.4030    1.1200    0.0000 H       1  UNL1        0.0637
     10 H           4.8250   -0.0369    0.0000 H       1  UNL1        0.0231
     11 H           5.6720    0.1900    0.0000 H       1  UNL1        0.0231
     12 H           5.4450    1.0369    0.0000 H       1  UNL1        0.0231
     13 H           3.9399   -0.8100    0.0000 H       1  UNL1        0.0592
     14 H           2.0000    0.6900    0.0000 H       1  UNL1        0.2102
     15 H           2.0000   -0.6900    0.0000 H       1  UNL1        0.0533
     16 H           2.5369   -1.6200    0.0000 H       1  UNL1        0.0533
@<TRIPOS>BOND
     1     1     3    1
     2     1    14    1
     3     2     3    1
     4     2     4    1
     5     2     7    1
     6     2     8    1
     7     3     5    1
     8     3     9    1
     9     4    10    1
    10     4    11    1
    11     4    12    1
    12     5     6    2
    13     5    13    1
    14     6    15    1
    15     6    16    1
