@<TRIPOS>MOLECULE
IMPHY015441
 86 85 0 0 0
SMALL
GASTEIGER

@<TRIPOS>ATOM
      1 C           7.1962    2.0000    0.0000 C.3     1  UNL1       -0.0410
      2 C           8.0622    2.5000    0.0000 C.3     1  UNL1       -0.0502
      3 C           6.3301    2.5000    0.0000 C.3     1  UNL1       -0.0502
      4 C           7.1962    1.0000    0.0000 C.3     1  UNL1       -0.0502
      5 C           8.9282    2.0000    0.0000 C.3     1  UNL1       -0.0528
      6 C           5.4641    2.0000    0.0000 C.3     1  UNL1       -0.0528
      7 C           6.3301    0.5000    0.0000 C.3     1  UNL1       -0.0528
      8 C           9.7942    2.5000    0.0000 C.3     1  UNL1       -0.0530
      9 C          10.6603    2.0000    0.0000 C.3     1  UNL1       -0.0531
     10 C           4.5981    2.5000    0.0000 C.3     1  UNL1       -0.0531
     11 C           6.3301   -0.5000    0.0000 C.3     1  UNL1       -0.0531
     12 C          11.5263    2.5000    0.0000 C.3     1  UNL1       -0.0531
     13 C          12.3923    2.0000    0.0000 C.3     1  UNL1       -0.0531
     14 C           3.7320    2.0000    0.0000 C.3     1  UNL1       -0.0533
     15 C           5.4641   -1.0000    0.0000 C.3     1  UNL1       -0.0533
     16 C          13.2583    2.5000    0.0000 C.3     1  UNL1       -0.0531
     17 C          14.1244    2.0000    0.0000 C.3     1  UNL1       -0.0531
     18 C          14.9904    2.5000    0.0000 C.3     1  UNL1       -0.0531
     19 C           2.8660    2.5000    0.0000 C.3     1  UNL1       -0.0559
     20 C           5.4641   -2.0000    0.0000 C.3     1  UNL1       -0.0559
     21 C          15.8564    2.0000    0.0000 C.3     1  UNL1       -0.0531
     22 C          16.7224    2.5000    0.0000 C.3     1  UNL1       -0.0531
     23 C          17.5885    2.0000    0.0000 C.3     1  UNL1       -0.0531
     24 C           2.0000    2.0000    0.0000 C.3     1  UNL1       -0.0653
     25 C           4.5981   -2.5000    0.0000 C.3     1  UNL1       -0.0653
     26 C          18.4545    2.5000    0.0000 C.3     1  UNL1       -0.0533
     27 C          19.3205    2.0000    0.0000 C.3     1  UNL1       -0.0559
     28 C          20.1865    2.5000    0.0000 C.3     1  UNL1       -0.0653
     29 H           6.6592    1.6900    0.0000 H       1  UNL1        0.0301
     30 H           8.4607    2.9750    0.0000 H       1  UNL1        0.0268
     31 H           7.6636    2.9750    0.0000 H       1  UNL1        0.0268
     32 H           6.7287    2.9750    0.0000 H       1  UNL1        0.0268
     33 H           5.9316    2.9750    0.0000 H       1  UNL1        0.0268
     34 H           7.4082    0.4174    0.0000 H       1  UNL1        0.0268
     35 H           7.8067    1.1077    0.0000 H       1  UNL1        0.0268
     36 H           8.5297    1.5250    0.0000 H       1  UNL1        0.0265
     37 H           9.3267    1.5250    0.0000 H       1  UNL1        0.0265
     38 H           5.0656    1.5250    0.0000 H       1  UNL1        0.0265
     39 H           5.8626    1.5250    0.0000 H       1  UNL1        0.0265
     40 H           6.1181    1.0826    0.0000 H       1  UNL1        0.0265
     41 H           5.7196    0.3923    0.0000 H       1  UNL1        0.0265
     42 H          10.1928    2.9750    0.0000 H       1  UNL1        0.0265
     43 H           9.3957    2.9750    0.0000 H       1  UNL1        0.0265
     44 H          10.2617    1.5250    0.0000 H       1  UNL1        0.0265
     45 H          11.0588    1.5250    0.0000 H       1  UNL1        0.0265
     46 H           4.9966    2.9750    0.0000 H       1  UNL1        0.0265
     47 H           4.1996    2.9750    0.0000 H       1  UNL1        0.0265
     48 H           6.5422   -1.0826    0.0000 H       1  UNL1        0.0265
     49 H           6.9407   -0.3923    0.0000 H       1  UNL1        0.0265
     50 H          11.9248    2.9750    0.0000 H       1  UNL1        0.0265
     51 H          11.1278    2.9750    0.0000 H       1  UNL1        0.0265
     52 H          11.9938    1.5250    0.0000 H       1  UNL1        0.0265
     53 H          12.7908    1.5250    0.0000 H       1  UNL1        0.0265
     54 H           3.3335    1.5250    0.0000 H       1  UNL1        0.0265
     55 H           4.1306    1.5250    0.0000 H       1  UNL1        0.0265
     56 H           5.2520   -0.4174    0.0000 H       1  UNL1        0.0265
     57 H           4.8535   -1.1077    0.0000 H       1  UNL1        0.0265
     58 H          13.6569    2.9750    0.0000 H       1  UNL1        0.0265
     59 H          12.8598    2.9750    0.0000 H       1  UNL1        0.0265
     60 H          13.7258    1.5250    0.0000 H       1  UNL1        0.0265
     61 H          14.5229    1.5250    0.0000 H       1  UNL1        0.0265
     62 H          15.3889    2.9750    0.0000 H       1  UNL1        0.0265
     63 H          14.5919    2.9750    0.0000 H       1  UNL1        0.0265
     64 H           3.2646    2.9750    0.0000 H       1  UNL1        0.0263
     65 H           2.4675    2.9750    0.0000 H       1  UNL1        0.0263
     66 H           5.6762   -2.5826    0.0000 H       1  UNL1        0.0263
     67 H           6.0747   -1.8923    0.0000 H       1  UNL1        0.0263
     68 H          15.4579    1.5250    0.0000 H       1  UNL1        0.0265
     69 H          16.2549    1.5250    0.0000 H       1  UNL1        0.0265
     70 H          17.1210    2.9750    0.0000 H       1  UNL1        0.0265
     71 H          16.3239    2.9750    0.0000 H       1  UNL1        0.0265
     72 H          17.1899    1.5250    0.0000 H       1  UNL1        0.0265
     73 H          17.9870    1.5250    0.0000 H       1  UNL1        0.0265
     74 H           1.6900    2.5369    0.0000 H       1  UNL1        0.0230
     75 H           1.4631    1.6900    0.0000 H       1  UNL1        0.0230
     76 H           2.3100    1.4631    0.0000 H       1  UNL1        0.0230
     77 H           4.2881   -1.9631    0.0000 H       1  UNL1        0.0230
     78 H           4.0611   -2.8100    0.0000 H       1  UNL1        0.0230
     79 H           4.9081   -3.0369    0.0000 H       1  UNL1        0.0230
     80 H          18.8530    2.9750    0.0000 H       1  UNL1        0.0265
     81 H          18.0560    2.9750    0.0000 H       1  UNL1        0.0265
     82 H          18.9220    1.5250    0.0000 H       1  UNL1        0.0263
     83 H          19.7190    1.5250    0.0000 H       1  UNL1        0.0263
     84 H          20.4965    1.9631    0.0000 H       1  UNL1        0.0230
     85 H          20.7235    2.8100    0.0000 H       1  UNL1        0.0230
     86 H          19.8765    3.0369    0.0000 H       1  UNL1        0.0230
@<TRIPOS>BOND
     1     1     2    1
     2     1     3    1
     3     1     4    1
     4     1    29    1
     5     2     5    1
     6     2    30    1
     7     2    31    1
     8     3     6    1
     9     3    32    1
    10     3    33    1
    11     4     7    1
    12     4    34    1
    13     4    35    1
    14     5     8    1
    15     5    36    1
    16     5    37    1
    17     6    10    1
    18     6    38    1
    19     6    39    1
    20     7    11    1
    21     7    40    1
    22     7    41    1
    23     8     9    1
    24     8    42    1
    25     8    43    1
    26     9    12    1
    27     9    44    1
    28     9    45    1
    29    10    14    1
    30    10    46    1
    31    10    47    1
    32    11    15    1
    33    11    48    1
    34    11    49    1
    35    12    13    1
    36    12    50    1
    37    12    51    1
    38    13    16    1
    39    13    52    1
    40    13    53    1
    41    14    19    1
    42    14    54    1
    43    14    55    1
    44    15    20    1
    45    15    56    1
    46    15    57    1
    47    16    17    1
    48    16    58    1
    49    16    59    1
    50    17    18    1
    51    17    60    1
    52    17    61    1
    53    18    21    1
    54    18    62    1
    55    18    63    1
    56    19    24    1
    57    19    64    1
    58    19    65    1
    59    20    25    1
    60    20    66    1
    61    20    67    1
    62    21    22    1
    63    21    68    1
    64    21    69    1
    65    22    23    1
    66    22    70    1
    67    22    71    1
    68    23    26    1
    69    23    72    1
    70    23    73    1
    71    24    74    1
    72    24    75    1
    73    24    76    1
    74    25    77    1
    75    25    78    1
    76    25    79    1
    77    26    27    1
    78    26    80    1
    79    26    81    1
    80    27    28    1
    81    27    82    1
    82    27    83    1
    83    28    84    1
    84    28    85    1
    85    28    86    1
