@<TRIPOS>MOLECULE
IMPHY013038
 58 61 0 0 0
SMALL
GASTEIGER

@<TRIPOS>ATOM
      1 O           4.1910    0.6547    0.0000 O.3     1  UNL1       -0.4842
      2 O           2.5440   -2.4362    0.0000 O.3     1  UNL1       -0.5056
      3 O           6.0822   -2.3263    0.0000 O.3     1  UNL1       -0.5051
      4 O           5.9484    0.7191    0.0000 O.2     1  UNL1       -0.2918
      5 O           3.4950   -3.9383    0.0000 O.2     1  UNL1       -0.2955
      6 C           4.5291    1.9898    0.0000 C.3     1  UNL1        0.0046
      7 C           5.9280    1.9986    0.0000 C.3     1  UNL1       -0.0256
      8 C           4.7879    2.9557    0.0000 C.3     1  UNL1       -0.0350
      9 C           3.3080    1.1241    0.0000 C.3     1  UNL1        0.1143
     10 C           4.0513    3.9383    0.0000 C.3     1  UNL1       -0.0427
     11 C           2.7546    2.6446    0.0000 C.3     1  UNL1       -0.0461
     12 C           2.4790    1.6833    0.0000 C.3     1  UNL1       -0.0124
     13 C           2.4600    0.5942    0.0000 C.3     1  UNL1       -0.0084
     14 C           6.7940    2.4986    0.0000 C.3     1  UNL1       -0.0592
     15 C           6.4280    1.1326    0.0000 C.3     1  UNL1       -0.0592
     16 C           2.4949   -0.4052    0.0000 C.3     1  UNL1       -0.0171
     17 C           4.2259   -0.3447    0.0000 C.ar    1  UNL1        0.1420
     18 C           3.3778   -0.8746    0.0000 C.ar    1  UNL1        0.0374
     19 C           5.1530   -0.8195    0.0000 C.ar    1  UNL1        0.1015
     20 C           3.3981   -1.9161    0.0000 C.ar    1  UNL1        0.1372
     21 C           5.1974   -1.8602    0.0000 C.ar    1  UNL1        0.1446
     22 C           4.3140   -2.4122    0.0000 C.ar    1  UNL1        0.0980
     23 C           5.9949   -0.2798    0.0000 C.2     1  UNL1        0.1705
     24 C           6.8832   -0.7390    0.0000 C.3     1  UNL1        0.0130
     25 C           4.3451   -3.4117    0.0000 C.2     1  UNL1        0.1573
     26 C           7.7251   -0.1994    0.0000 C.3     1  UNL1       -0.0397
     27 C           8.6134   -0.6586    0.0000 C.3     1  UNL1       -0.0623
     28 C           7.6786    0.7996    0.0000 C.3     1  UNL1       -0.0623
     29 H           4.3091    1.1688    0.0000 H       1  UNL1        0.0345
     30 H           5.0079    3.7768    0.0000 H       1  UNL1        0.0306
     31 H           4.3691    4.4707    0.0000 H       1  UNL1        0.0272
     32 H           3.4381    4.0303    0.0000 H       1  UNL1        0.0272
     33 H           2.7496    3.2646    0.0000 H       1  UNL1        0.0269
     34 H           2.1403    2.7284    0.0000 H       1  UNL1        0.0269
     35 H           1.9042    1.9156    0.0000 H       1  UNL1        0.0304
     36 H           2.1879    1.1359    0.0000 H       1  UNL1        0.0304
     37 H           2.2277    1.1691    0.0000 H       1  UNL1        0.0307
     38 H           1.8536    0.4653    0.0000 H       1  UNL1        0.0307
     39 H           7.1040    1.9617    0.0000 H       1  UNL1        0.0235
     40 H           7.3310    2.8086    0.0000 H       1  UNL1        0.0235
     41 H           6.4840    3.0356    0.0000 H       1  UNL1        0.0235
     42 H           5.8911    0.8226    0.0000 H       1  UNL1        0.0235
     43 H           6.7380    0.5957    0.0000 H       1  UNL1        0.0235
     44 H           6.9649    1.4426    0.0000 H       1  UNL1        0.0235
     45 H           1.8809   -0.3189    0.0000 H       1  UNL1        0.0317
     46 H           2.3033   -0.9948    0.0000 H       1  UNL1        0.0317
     47 H           2.0000   -2.1388    0.0000 H       1  UNL1        0.2922
     48 H           6.5072   -1.2320    0.0000 H       1  UNL1        0.0348
     49 H           7.3034   -1.1950    0.0000 H       1  UNL1        0.0348
     50 H           4.8914   -3.7049    0.0000 H       1  UNL1        0.1084
     51 H           6.1062   -2.9458    0.0000 H       1  UNL1        0.2922
     52 H           7.1743    0.0854    0.0000 H       1  UNL1        0.0300
     53 H           8.3287   -1.2093    0.0000 H       1  UNL1        0.0232
     54 H           9.1642   -0.9433    0.0000 H       1  UNL1        0.0232
     55 H           8.8981   -0.1078    0.0000 H       1  UNL1        0.0232
     56 H           8.2980    0.8284    0.0000 H       1  UNL1        0.0232
     57 H           7.6498    1.4189    0.0000 H       1  UNL1        0.0232
     58 H           7.0593    0.7708    0.0000 H       1  UNL1        0.0232
@<TRIPOS>BOND
     1     9     1    1
     2     1    17    1
     3     2    20    1
     4     2    47    1
     5     3    21    1
     6     3    51    1
     7     4    23    2
     8     5    25    2
     9     6     7    1
    10     6     9    1
    11     6    10    1
    12     6    29    1
    13     7     8    1
    14     7    14    1
    15     7    15    1
    16     8    10    1
    17     8    11    1
    18     8    30    1
    19     9    12    1
    20     9    13    1
    21    10    31    1
    22    10    32    1
    23    11    12    1
    24    11    33    1
    25    11    34    1
    26    12    35    1
    27    12    36    1
    28    13    16    1
    29    13    37    1
    30    13    38    1
    31    14    39    1
    32    14    40    1
    33    14    41    1
    34    15    42    1
    35    15    43    1
    36    15    44    1
    37    16    18    1
    38    16    45    1
    39    16    46    1
    40    17    18   ar
    41    17    19   ar
    42    18    20   ar
    43    19    21   ar
    44    19    23    1
    45    20    22   ar
    46    21    22   ar
    47    22    25    1
    48    23    24    1
    49    24    26    1
    50    24    48    1
    51    24    49    1
    52    25    50    1
    53    26    27    1
    54    26    28    1
    55    26    52    1
    56    27    53    1
    57    27    54    1
    58    27    55    1
    59    28    56    1
    60    28    57    1
    61    28    58    1
