@<TRIPOS>MOLECULE
IMPHY009523
 45 47 0 0 0
SMALL
GASTEIGER

@<TRIPOS>ATOM
      1 O           6.3580   -0.4293    0.0000 O.2     1  UNL1       -0.4504
      2 O           4.5981   -1.3946    0.0000 O.3     1  UNL1       -0.4884
      3 O           2.8660   -0.3946    0.0000 O.3     1  UNL1       -0.4883
      4 O           2.8660    1.6054    0.0000 O.3     1  UNL1       -0.4884
      5 O           4.5981    2.6054    0.0000 O.3     1  UNL1       -0.5027
      6 O           7.2564   -1.9154    0.0000 O.3     1  UNL1       -0.4943
      7 O           6.3465    2.6400    0.0000 O.2     1  UNL1       -0.2869
      8 O           9.0000    1.0779    0.0000 O.3     1  UNL1       -0.5059
      9 C           5.4641    1.1054    0.0000 C.ar    1  UNL1        0.1128
     10 C           5.4641    0.1054    0.0000 C.ar    1  UNL1        0.1881
     11 C           4.5981   -0.3946    0.0000 C.ar    1  UNL1        0.2088
     12 C           7.2641    0.0846    0.0000 C.ar    1  UNL1        0.1464
     13 C           4.5981    1.6054    0.0000 C.ar    1  UNL1        0.1770
     14 C           3.7320    0.1054    0.0000 C.ar    1  UNL1        0.2110
     15 C           6.3580    1.6401    0.0000 C.ar    1  UNL1        0.1969
     16 C           3.7320    1.1054    0.0000 C.ar    1  UNL1        0.2080
     17 C           8.1282   -0.4188    0.0000 C.ar    1  UNL1        0.1002
     18 C           7.2641    1.1262    0.0000 C.ar    1  UNL1        0.0291
     19 C           8.1244   -1.4188    0.0000 C.ar    1  UNL1        0.1343
     20 C           8.9962    0.0779    0.0000 C.ar    1  UNL1        0.1310
     21 C           8.9884   -1.9221    0.0000 C.ar    1  UNL1       -0.0190
     22 C           9.8602   -0.4254    0.0000 C.ar    1  UNL1       -0.0192
     23 C           9.8564   -1.4254    0.0000 C.ar    1  UNL1       -0.0548
     24 C           3.7320   -1.8946    0.0000 C.3     1  UNL1        0.0791
     25 C           2.0000    0.1054    0.0000 C.3     1  UNL1        0.0791
     26 C           2.0000    1.1054    0.0000 C.3     1  UNL1        0.0791
     27 C           7.2526   -2.9154    0.0000 C.3     1  UNL1        0.0788
     28 H           7.7998    1.4383    0.0000 H       1  UNL1        0.0693
     29 H           8.9860   -2.5421    0.0000 H       1  UNL1        0.0654
     30 H          10.3984   -0.1175    0.0000 H       1  UNL1        0.0654
     31 H          10.3921   -1.7375    0.0000 H       1  UNL1        0.0620
     32 H           4.0611    2.9154    0.0000 H       1  UNL1        0.2923
     33 H           3.4220   -1.3577    0.0000 H       1  UNL1        0.0660
     34 H           3.1951   -2.2046    0.0000 H       1  UNL1        0.0660
     35 H           4.0420   -2.4315    0.0000 H       1  UNL1        0.0660
     36 H           2.3100    0.6423    0.0000 H       1  UNL1        0.0660
     37 H           1.4631    0.4154    0.0000 H       1  UNL1        0.0660
     38 H           1.6900   -0.4315    0.0000 H       1  UNL1        0.0660
     39 H           1.6900    1.6423    0.0000 H       1  UNL1        0.0660
     40 H           1.4631    0.7954    0.0000 H       1  UNL1        0.0660
     41 H           2.3100    0.5685    0.0000 H       1  UNL1        0.0660
     42 H           9.5381    1.3858    0.0000 H       1  UNL1        0.2922
     43 H           6.6326   -2.9130    0.0000 H       1  UNL1        0.0660
     44 H           7.2502   -3.5354    0.0000 H       1  UNL1        0.0660
     45 H           7.8725   -2.9178    0.0000 H       1  UNL1        0.0660
@<TRIPOS>BOND
     1     1    10   ar
     2     1    12   ar
     3     2    11    1
     4     2    24    1
     5     3    14    1
     6     3    25    1
     7     4    16    1
     8     4    26    1
     9     5    13    1
    10     5    32    1
    11     6    19    1
    12     6    27    1
    13     7    15    2
    14     8    20    1
    15     8    42    1
    16     9    10   ar
    17     9    13   ar
    18     9    15   ar
    19    10    11   ar
    20    11    14   ar
    21    12    17    1
    22    12    18   ar
    23    13    16   ar
    24    14    16   ar
    25    15    18   ar
    26    17    19   ar
    27    17    20   ar
    28    18    28    1
    29    19    21   ar
    30    20    22   ar
    31    21    23   ar
    32    21    29    1
    33    22    23   ar
    34    22    30    1
    35    23    31    1
    36    24    33    1
    37    24    34    1
    38    24    35    1
    39    25    36    1
    40    25    37    1
    41    25    38    1
    42    26    39    1
    43    26    40    1
    44    26    41    1
    45    27    43    1
    46    27    44    1
    47    27    45    1
