@<TRIPOS>MOLECULE
IMPHY013468
 130 138 0 0 0
SMALL
GASTEIGER

@<TRIPOS>ATOM
      1 O          10.8882    4.0403    0.0000 O.3     1  UNL1       -0.3448
      2 O           9.1158    4.9351    0.0000 O.3     1  UNL1       -0.3480
      3 O           9.4651   -4.2038    0.0000 O.3     1  UNL1       -0.3451
      4 O           7.7331   -4.2038    0.0000 O.3     1  UNL1       -0.3405
      5 O           9.4651   -6.2038    0.0000 O.3     1  UNL1       -0.3378
      6 O           7.7331   -7.2038    0.0000 O.3     1  UNL1       -0.3864
      7 O           6.0010   -6.2038    0.0000 O.3     1  UNL1       -0.3402
      8 O          10.3312   -4.7038    0.0000 O.3     1  UNL1       -0.3431
      9 O           6.0010   -3.2038    0.0000 O.3     1  UNL1       -0.3924
     10 O           5.1350   -4.7038    0.0000 O.3     1  UNL1       -0.3461
     11 O          11.1972   -7.2038    0.0000 O.3     1  UNL1       -0.3841
     12 O          12.9292   -6.2038    0.0000 O.3     1  UNL1       -0.3864
     13 O          12.9292   -4.2038    0.0000 O.3     1  UNL1       -0.3866
     14 O           4.2690   -7.2038    0.0000 O.3     1  UNL1       -0.3841
     15 O           2.5369   -6.2038    0.0000 O.3     1  UNL1       -0.3864
     16 O           2.5369   -4.2038    0.0000 O.3     1  UNL1       -0.3869
     17 C           9.4944    1.9931    0.0000 C.3     1  UNL1       -0.0233
     18 C          10.3623    1.4965    0.0000 C.3     1  UNL1       -0.0295
     19 C           9.6999    2.9657    0.0000 C.3     1  UNL1       -0.0015
     20 C          10.3662    0.4965    0.0000 C.3     1  UNL1       -0.0306
     21 C          10.6882    3.0726    0.0000 C.3     1  UNL1        0.0660
     22 C           9.5021   -0.0069    0.0000 C.3     1  UNL1       -0.0285
     23 C          11.0968    2.1664    0.0000 C.3     1  UNL1       -0.0226
     24 C           8.6303    1.4898    0.0000 C.3     1  UNL1       -0.0467
     25 C           9.2976    3.8683    0.0000 C.3     1  UNL1        0.0160
     26 C           8.6342    0.4898    0.0000 C.3     1  UNL1       -0.0486
     27 C           9.4901   -1.0484    0.0000 C.3     1  UNL1       -0.0078
     28 C          10.0305    4.5311    0.0000 C.3     1  UNL1        0.1732
     29 C           8.6264    2.4898    0.0000 C.3     1  UNL1       -0.0590
     30 C          11.2781   -0.0069    0.0000 C.3     1  UNL1       -0.0311
     31 C          10.3901   -1.5727    0.0000 C.2     1  UNL1       -0.0648
     32 C           8.5402   -1.5727    0.0000 C.3     1  UNL1       -0.0413
     33 C           8.3192    4.0750    0.0000 C.3     1  UNL1       -0.0572
     34 C          10.8378    5.1213    0.0000 C.3     1  UNL1        0.0020
     35 C          11.2902   -1.0484    0.0000 C.2     1  UNL1       -0.0839
     36 C           8.6260   -0.5451    0.0000 C.3     1  UNL1       -0.0556
     37 C          10.4027   -2.6576    0.0000 C.3     1  UNL1       -0.0047
     38 C           8.5276   -2.6576    0.0000 C.3     1  UNL1       -0.0254
     39 C           9.4651   -3.2038    0.0000 C.3     1  UNL1        0.0655
     40 C          10.7303    6.1155    0.0000 C.3     1  UNL1       -0.0435
     41 C           9.8155    6.5195    0.0000 C.3     1  UNL1       -0.0201
     42 C           9.0083    5.9293    0.0000 C.3     1  UNL1        0.0535
     43 C           9.7080    7.5138    0.0000 C.3     1  UNL1       -0.0603
     44 C           8.5991   -4.7038    0.0000 C.3     1  UNL1        0.1886
     45 C           8.5991   -5.7038    0.0000 C.3     1  UNL1        0.1406
     46 C           7.7331   -6.2038    0.0000 C.3     1  UNL1        0.1148
     47 C           6.8671   -4.7038    0.0000 C.3     1  UNL1        0.1134
     48 C           6.8671   -5.7038    0.0000 C.3     1  UNL1        0.1184
     49 C           6.0010   -4.2038    0.0000 C.3     1  UNL1        0.0730
     50 C          10.3312   -5.7038    0.0000 C.3     1  UNL1        0.1884
     51 C          11.1972   -6.2038    0.0000 C.3     1  UNL1        0.1341
     52 C           5.1350   -5.7038    0.0000 C.3     1  UNL1        0.1880
     53 C          12.0632   -5.7038    0.0000 C.3     1  UNL1        0.1140
     54 C          11.1972   -4.2038    0.0000 C.3     1  UNL1        0.0873
     55 C          12.0632   -4.7038    0.0000 C.3     1  UNL1        0.1095
     56 C           4.2690   -6.2038    0.0000 C.3     1  UNL1        0.1341
     57 C           3.4030   -5.7038    0.0000 C.3     1  UNL1        0.1137
     58 C          11.1972   -3.2038    0.0000 C.3     1  UNL1       -0.0361
     59 C           4.2690   -4.2038    0.0000 C.3     1  UNL1        0.0792
     60 C           3.4030   -4.7038    0.0000 C.3     1  UNL1        0.1069
     61 H          11.1406    1.1548    0.0000 H       1  UNL1        0.0310
     62 H           8.8546    2.8762    0.0000 H       1  UNL1        0.0335
     63 H          11.0974    0.9300    0.0000 H       1  UNL1        0.0310
     64 H          11.5330    3.1658    0.0000 H       1  UNL1        0.0600
     65 H          10.2366   -0.4347    0.0000 H       1  UNL1        0.0312
     66 H          11.4642    1.6670    0.0000 H       1  UNL1        0.0293
     67 H          11.6321    2.4792    0.0000 H       1  UNL1        0.0293
     68 H           8.4160    2.0716    0.0000 H       1  UNL1        0.0271
     69 H           8.0201    1.3798    0.0000 H       1  UNL1        0.0271
     70 H           8.9078    3.3862    0.0000 H       1  UNL1        0.0354
     71 H           8.0232    0.5951    0.0000 H       1  UNL1        0.0268
     72 H           8.4244   -0.0936    0.0000 H       1  UNL1        0.0268
     73 H           8.9344    3.0279    0.0000 H       1  UNL1        0.0235
     74 H           8.0883    2.7977    0.0000 H       1  UNL1        0.0235
     75 H           8.3185    1.9517    0.0000 H       1  UNL1        0.0235
     76 H          11.8902   -0.1059    0.0000 H       1  UNL1        0.0310
     77 H          11.4804    0.5792    0.0000 H       1  UNL1        0.0310
     78 H           8.3379   -0.9866    0.0000 H       1  UNL1        0.0274
     79 H           7.9281   -1.6717    0.0000 H       1  UNL1        0.0274
     80 H           8.4473    4.6816    0.0000 H       1  UNL1        0.0234
     81 H           7.7125    4.2032    0.0000 H       1  UNL1        0.0234
     82 H           8.1910    3.4684    0.0000 H       1  UNL1        0.0234
     83 H          11.1112    4.5649    0.0000 H       1  UNL1        0.0317
     84 H          11.4333    5.2940    0.0000 H       1  UNL1        0.0317
     85 H          11.8295   -1.3543    0.0000 H       1  UNL1        0.0572
     86 H           8.9380   -0.0093    0.0000 H       1  UNL1        0.0238
     87 H           8.0902   -0.2330    0.0000 H       1  UNL1        0.0238
     88 H           8.3139   -1.0808    0.0000 H       1  UNL1        0.0238
     89 H          10.6185   -3.2389    0.0000 H       1  UNL1        0.0335
     90 H          11.0123   -2.5445    0.0000 H       1  UNL1        0.0335
     91 H           7.9180   -2.5445    0.0000 H       1  UNL1        0.0290
     92 H           8.3118   -3.2389    0.0000 H       1  UNL1        0.0290
     93 H          10.0027   -3.5127    0.0000 H       1  UNL1        0.0600
     94 H          11.3489    6.0741    0.0000 H       1  UNL1        0.0270
     95 H          10.8785    6.7176    0.0000 H       1  UNL1        0.0270
     96 H          10.3160    6.8855    0.0000 H       1  UNL1        0.0320
     97 H           8.7348    6.4858    0.0000 H       1  UNL1        0.0563
     98 H           8.4128    5.7567    0.0000 H       1  UNL1        0.0563
     99 H          10.3244    7.5804    0.0000 H       1  UNL1        0.0233
    100 H           9.6414    8.1302    0.0000 H       1  UNL1        0.0233
    101 H           9.0916    7.4471    0.0000 H       1  UNL1        0.0233
    102 H           8.5991   -4.0838    0.0000 H       1  UNL1        0.0938
    103 H           8.5991   -6.3238    0.0000 H       1  UNL1        0.0675
    104 H           7.1962   -6.5138    0.0000 H       1  UNL1        0.0648
    105 H           6.8671   -4.0838    0.0000 H       1  UNL1        0.0647
    106 H           6.3301   -5.3938    0.0000 H       1  UNL1        0.0651
    107 H           5.3905   -4.0961    0.0000 H       1  UNL1        0.0584
    108 H           5.7890   -4.7864    0.0000 H       1  UNL1        0.0584
    109 H           9.7942   -5.3938    0.0000 H       1  UNL1        0.0938
    110 H           7.1962   -7.5138    0.0000 H       1  UNL1        0.2100
    111 H          11.7341   -6.5138    0.0000 H       1  UNL1        0.0671
    112 H           5.1350   -6.3238    0.0000 H       1  UNL1        0.0937
    113 H           5.4641   -2.8938    0.0000 H       1  UNL1        0.2095
    114 H          12.6002   -5.3938    0.0000 H       1  UNL1        0.0648
    115 H          10.6603   -3.8938    0.0000 H       1  UNL1        0.0621
    116 H          12.0632   -4.0838    0.0000 H       1  UNL1        0.0646
    117 H           3.7320   -6.5138    0.0000 H       1  UNL1        0.0671
    118 H           2.8660   -5.3938    0.0000 H       1  UNL1        0.0647
    119 H          11.7341   -7.5138    0.0000 H       1  UNL1        0.2101
    120 H          11.8172   -3.2038    0.0000 H       1  UNL1        0.0255
    121 H          11.1972   -2.5838    0.0000 H       1  UNL1        0.0255
    122 H          10.5772   -3.2038    0.0000 H       1  UNL1        0.0255
    123 H           4.6675   -3.7288    0.0000 H       1  UNL1        0.0587
    124 H           3.8705   -3.7288    0.0000 H       1  UNL1        0.0587
    125 H           3.4030   -4.0838    0.0000 H       1  UNL1        0.0643
    126 H          13.4662   -5.8938    0.0000 H       1  UNL1        0.2100
    127 H          13.4662   -4.5138    0.0000 H       1  UNL1        0.2100
    128 H           3.7320   -7.5138    0.0000 H       1  UNL1        0.2101
    129 H           2.0000   -5.8938    0.0000 H       1  UNL1        0.2100
    130 H           2.5369   -3.5838    0.0000 H       1  UNL1        0.2100
@<TRIPOS>BOND
     1     1    21    1
     2    28     1    1
     3     2    28    1
     4     2    42    1
     5    39     3    1
     6    44     3    1
     7     4    44    1
     8     4    47    1
     9    45     5    1
    10    50     5    1
    11    46     6    1
    12     6   110    1
    13    48     7    1
    14    52     7    1
    15     8    50    1
    16     8    54    1
    17     9    49    1
    18     9   113    1
    19    10    52    1
    20    10    59    1
    21    51    11    1
    22    11   119    1
    23    53    12    1
    24    12   126    1
    25    55    13    1
    26    13   127    1
    27    56    14    1
    28    14   128    1
    29    57    15    1
    30    15   129    1
    31    60    16    1
    32    16   130    1
    33    17    18    1
    34    17    19    1
    35    17    24    1
    36    17    29    1
    37    18    20    1
    38    18    23    1
    39    18    61    1
    40    19    21    1
    41    19    25    1
    42    19    62    1
    43    20    22    1
    44    20    30    1
    45    20    63    1
    46    21    23    1
    47    21    64    1
    48    22    26    1
    49    22    27    1
    50    22    65    1
    51    23    66    1
    52    23    67    1
    53    24    26    1
    54    24    68    1
    55    24    69    1
    56    25    28    1
    57    25    33    1
    58    25    70    1
    59    26    71    1
    60    26    72    1
    61    27    31    1
    62    27    32    1
    63    27    36    1
    64    28    34    1
    65    29    73    1
    66    29    74    1
    67    29    75    1
    68    30    35    1
    69    30    76    1
    70    30    77    1
    71    31    35    2
    72    31    37    1
    73    32    38    1
    74    32    78    1
    75    32    79    1
    76    33    80    1
    77    33    81    1
    78    33    82    1
    79    34    40    1
    80    34    83    1
    81    34    84    1
    82    35    85    1
    83    36    86    1
    84    36    87    1
    85    36    88    1
    86    37    39    1
    87    37    89    1
    88    37    90    1
    89    38    39    1
    90    38    91    1
    91    38    92    1
    92    39    93    1
    93    40    41    1
    94    40    94    1
    95    40    95    1
    96    41    42    1
    97    41    43    1
    98    41    96    1
    99    42    97    1
   100    42    98    1
   101    43    99    1
   102    43   100    1
   103    43   101    1
   104    44    45    1
   105    44   102    1
   106    45    46    1
   107    45   103    1
   108    46    48    1
   109    46   104    1
   110    47    48    1
   111    47    49    1
   112    47   105    1
   113    48   106    1
   114    49   107    1
   115    49   108    1
   116    50    51    1
   117    50   109    1
   118    51    53    1
   119    51   111    1
   120    52    56    1
   121    52   112    1
   122    53    55    1
   123    53   114    1
   124    54    55    1
   125    54    58    1
   126    54   115    1
   127    55   116    1
   128    56    57    1
   129    56   117    1
   130    57    60    1
   131    57   118    1
   132    58   120    1
   133    58   121    1
   134    58   122    1
   135    59    60    1
   136    59   123    1
   137    59   124    1
   138    60   125    1
