@<TRIPOS>MOLECULE
IMPHY014552
 39 40 0 0 0
SMALL
GASTEIGER

@<TRIPOS>ATOM
      1 O           9.9490   -0.5368    0.0000 O.3     1  UNL1       -0.4774
      2 O           8.4490    0.3292    0.0000 O.2     1  UNL1       -0.2455
      3 C           5.4490    0.3292    0.0000 C.3     1  UNL1       -0.0222
      4 C           4.3089    1.2863    0.0000 C.3     1  UNL1       -0.0311
      5 C           4.0501    0.3204    0.0000 C.3     1  UNL1       -0.0142
      6 C           3.5723    2.2689    0.0000 C.3     1  UNL1       -0.0424
      7 C           2.2756    0.9752    0.0000 C.3     1  UNL1       -0.0311
      8 C           5.9490   -0.5368    0.0000 C.3     1  UNL1       -0.0434
      9 C           2.8290   -0.5453    0.0000 C.2     1  UNL1       -0.0729
     10 C           6.3150    0.8292    0.0000 C.3     1  UNL1       -0.0587
     11 C           2.0000    0.0139    0.0000 C.2     1  UNL1       -0.0845
     12 C           6.9490   -0.5368    0.0000 C.3     1  UNL1       -0.0335
     13 C           2.8639   -1.5447    0.0000 C.3     1  UNL1       -0.0435
     14 C           7.4490   -1.4029    0.0000 C.2     1  UNL1       -0.0743
     15 C           8.4490   -1.4029    0.0000 C.2     1  UNL1        0.0294
     16 C           8.9490   -2.2689    0.0000 C.3     1  UNL1       -0.0332
     17 C           8.9490   -0.5368    0.0000 C.2     1  UNL1        0.3322
     18 H           4.5289    2.1073    0.0000 H       1  UNL1        0.0309
     19 H           3.8301   -0.5007    0.0000 H       1  UNL1        0.0351
     20 H           3.8901    2.8012    0.0000 H       1  UNL1        0.0274
     21 H           2.9591    2.3608    0.0000 H       1  UNL1        0.0274
     22 H           2.2706    1.5951    0.0000 H       1  UNL1        0.0310
     23 H           1.6613    1.0589    0.0000 H       1  UNL1        0.0310
     24 H           5.3664   -0.7489    0.0000 H       1  UNL1        0.0274
     25 H           6.0567   -1.1474    0.0000 H       1  UNL1        0.0274
     26 H           6.6250    0.2922    0.0000 H       1  UNL1        0.0235
     27 H           6.8520    1.1392    0.0000 H       1  UNL1        0.0235
     28 H           6.0050    1.3661    0.0000 H       1  UNL1        0.0235
     29 H           1.4174   -0.1982    0.0000 H       1  UNL1        0.0572
     30 H           7.5316   -0.3248    0.0000 H       1  UNL1        0.0308
     31 H           6.8413    0.0737    0.0000 H       1  UNL1        0.0308
     32 H           2.2443   -1.5663    0.0000 H       1  UNL1        0.0274
     33 H           2.8856   -2.1643    0.0000 H       1  UNL1        0.0274
     34 H           3.4836   -1.5231    0.0000 H       1  UNL1        0.0274
     35 H           7.1390   -1.9398    0.0000 H       1  UNL1        0.0577
     36 H           8.4121   -2.5789    0.0000 H       1  UNL1        0.0280
     37 H           9.2590   -2.8058    0.0000 H       1  UNL1        0.0280
     38 H           9.4859   -1.9589    0.0000 H       1  UNL1        0.0280
     39 H          10.2590    0.0001    0.0000 H       1  UNL1        0.2954
@<TRIPOS>BOND
     1     1    17    1
     2     1    39    1
     3     2    17    2
     4     3     4    1
     5     3     5    1
     6     3     8    1
     7     3    10    1
     8     4     6    1
     9     4     7    1
    10     4    18    1
    11     5     6    1
    12     5     9    1
    13     5    19    1
    14     6    20    1
    15     6    21    1
    16     7    11    1
    17     7    22    1
    18     7    23    1
    19     8    12    1
    20     8    24    1
    21     8    25    1
    22     9    11    2
    23     9    13    1
    24    10    26    1
    25    10    27    1
    26    10    28    1
    27    11    29    1
    28    12    14    1
    29    12    30    1
    30    12    31    1
    31    13    32    1
    32    13    33    1
    33    13    34    1
    34    14    15    2
    35    14    35    1
    36    15    16    1
    37    15    17    1
    38    16    36    1
    39    16    37    1
    40    16    38    1
