@<TRIPOS>MOLECULE
IMPHY012808
 37 39 0 0 0
SMALL
GASTEIGER

@<TRIPOS>ATOM
      1 O           5.5176   -1.4994    0.0000 O.3     1  UNL1       -0.4531
      2 O           3.7281   -0.8009    0.0000 O.3     1  UNL1       -0.4501
      3 O           6.9298   -2.5770    0.0000 O.2     1  UNL1       -0.2453
      4 O           2.0000   -1.1846    0.0000 O.2     1  UNL1       -0.2508
      5 C           4.4807   -0.0807    0.0000 C.3     1  UNL1        0.1690
      6 C           5.3816   -0.5146    0.0000 C.3     1  UNL1        0.1534
      7 C           6.2826   -0.0807    0.0000 C.3     1  UNL1        0.0319
      8 C           4.2582    0.8942    0.0000 C.2     1  UNL1       -0.0237
      9 C           6.5051    0.8942    0.0000 C.3     1  UNL1       -0.0388
     10 C           5.8816    1.6760    0.0000 C.3     1  UNL1       -0.0310
     11 C           4.8816    1.6760    0.0000 C.2     1  UNL1       -0.0695
     12 C           3.2676    1.2165    0.0000 C.3     1  UNL1       -0.0176
     13 C           6.9677   -0.8010    0.0000 C.2     1  UNL1        0.0362
     14 C           4.7032   -1.0557    0.0000 C.3     1  UNL1       -0.0173
     15 C           2.4986    0.5139    0.0000 C.3     1  UNL1        0.0488
     16 C           6.4959   -1.6760    0.0000 C.2     1  UNL1        0.3354
     17 C           2.7304   -0.5016    0.0000 C.2     1  UNL1        0.3083
     18 C           4.4478    2.5770    0.0000 C.3     1  UNL1       -0.0434
     19 C           7.9589   -0.6685    0.0000 C.2     1  UNL1       -0.0883
     20 H           6.1307   -0.9164    0.0000 H       1  UNL1        0.0784
     21 H           7.1023    0.1443    0.0000 H       1  UNL1        0.0388
     22 H           7.0637    0.6252    0.0000 H       1  UNL1        0.0275
     23 H           6.8917    1.3789    0.0000 H       1  UNL1        0.0275
     24 H           6.4402    1.9450    0.0000 H       1  UNL1        0.0310
     25 H           5.7437    2.2805    0.0000 H       1  UNL1        0.0310
     26 H           3.5576    1.7646    0.0000 H       1  UNL1        0.0317
     27 H           2.7773    1.5959    0.0000 H       1  UNL1        0.0317
     28 H           4.0987   -1.1936    0.0000 H       1  UNL1        0.0273
     29 H           4.8412   -1.6601    0.0000 H       1  UNL1        0.0273
     30 H           5.3076   -0.9177    0.0000 H       1  UNL1        0.0273
     31 H           2.1649    1.0365    0.0000 H       1  UNL1        0.0381
     32 H           1.9267    0.2746    0.0000 H       1  UNL1        0.0381
     33 H           5.0064    2.8460    0.0000 H       1  UNL1        0.0274
     34 H           4.1788    3.1356    0.0000 H       1  UNL1        0.0274
     35 H           3.8892    2.3080    0.0000 H       1  UNL1        0.0274
     36 H           8.3373   -1.1596    0.0000 H       1  UNL1        0.0540
     37 H           8.1950   -0.0952    0.0000 H       1  UNL1        0.0540
@<TRIPOS>BOND
     1     1     6    1
     2     1    16    1
     3     2     5    1
     4     2    17    1
     5     3    16    2
     6     4    17    2
     7     5     6    1
     8     5     8    1
     9     5    14    1
    10     6     7    1
    11     6    20    1
    12     7     9    1
    13     7    13    1
    14     7    21    1
    15     8    11    2
    16     8    12    1
    17     9    10    1
    18     9    22    1
    19     9    23    1
    20    10    11    1
    21    10    24    1
    22    10    25    1
    23    11    18    1
    24    12    15    1
    25    12    26    1
    26    12    27    1
    27    13    16    1
    28    13    19    2
    29    14    28    1
    30    14    29    1
    31    14    30    1
    32    15    17    1
    33    15    31    1
    34    15    32    1
    35    18    33    1
    36    18    34    1
    37    18    35    1
    38    19    36    1
    39    19    37    1
