@<TRIPOS>MOLECULE
IMPHY014671
 76 79 0 0 0
SMALL
GASTEIGER

@<TRIPOS>ATOM
      1 O           7.1458   -1.8615    0.0000 O.3     1  UNL1       -0.4496
      2 O           5.0892    0.9576    0.0000 O.3     1  UNL1       -0.4570
      3 O           6.6282    1.8024    0.0000 O.3     1  UNL1       -0.4565
      4 O           7.7530   -2.3955    0.0000 O.2     1  UNL1       -0.2881
      5 O           5.4728   -2.3098    0.0000 O.2     1  UNL1       -0.2511
      6 O           3.6383    0.0117    0.0000 O.2     1  UNL1       -0.2450
      7 O           8.1282    2.6685    0.0000 O.2     1  UNL1       -0.2511
      8 C          11.2749   -0.7276    0.0000 C.3     1  UNL1       -0.0250
      9 C          10.6673   -0.0119    0.0000 C.3     1  UNL1       -0.0283
     10 C          10.3511   -0.8955    0.0000 C.3     1  UNL1       -0.0135
     11 C           9.9601    0.6952    0.0000 C.3     1  UNL1       -0.0454
     12 C          12.0374   -0.0807    0.0000 C.3     1  UNL1       -0.0590
     13 C          11.4540   -1.7115    0.0000 C.3     1  UNL1       -0.0590
     14 C           9.4851   -1.3955    0.0000 C.2     1  UNL1       -0.0738
     15 C           6.6282    0.0704    0.0000 C.3     1  UNL1        0.0844
     16 C           6.8870   -0.8955    0.0000 C.3     1  UNL1        0.1850
     17 C           8.9942    0.4364    0.0000 C.3     1  UNL1       -0.0283
     18 C           5.6353    0.1198    0.0000 C.3     1  UNL1        0.1167
     19 C           6.0519   -1.4348    0.0000 C.3     1  UNL1        0.0011
     20 C           5.2799   -0.8085    0.0000 C.3     1  UNL1       -0.0021
     21 C           7.1282    0.9364    0.0000 C.3     1  UNL1        0.1342
     22 C           8.6191   -0.8955    0.0000 C.2     1  UNL1       -0.0076
     23 C           8.1282    0.9364    0.0000 C.2     1  UNL1       -0.0361
     24 C           7.7530   -1.3955    0.0000 C.2     1  UNL1        0.2025
     25 C           4.3140   -1.0673    0.0000 C.3     1  UNL1       -0.0589
     26 C           8.4454    0.0893    0.0000 C.3     1  UNL1       -0.0366
     27 C           8.3870    1.9023    0.0000 C.2     1  UNL1       -0.0960
     28 C           6.4387   -2.5686    0.0000 C.2     1  UNL1        0.3049
     29 C           4.0907    0.9035    0.0000 C.2     1  UNL1        0.3395
     30 C           7.1282    2.6685    0.0000 C.2     1  UNL1        0.3045
     31 C           6.6975   -3.5345    0.0000 C.3     1  UNL1        0.0333
     32 C           3.5446    1.7412    0.0000 C.ar    1  UNL1        0.0590
     33 C           6.6282    3.5345    0.0000 C.3     1  UNL1        0.0333
     34 C           3.9971    2.6330    0.0000 C.ar    1  UNL1       -0.0478
     35 C           2.5461    1.6872    0.0000 C.ar    1  UNL1       -0.0478
     36 C           3.4510    3.4708    0.0000 C.ar    1  UNL1       -0.0610
     37 C           2.0000    2.5249    0.0000 C.ar    1  UNL1       -0.0610
     38 C           2.4524    3.4167    0.0000 C.ar    1  UNL1       -0.0617
     39 H          11.2923    0.5642    0.0000 H       1  UNL1        0.0312
     40 H          10.6439   -1.6935    0.0000 H       1  UNL1        0.0351
     41 H          10.4680    1.0508    0.0000 H       1  UNL1        0.0271
     42 H           9.6981    1.2572    0.0000 H       1  UNL1        0.0271
     43 H          12.4385   -0.5534    0.0000 H       1  UNL1        0.0235
     44 H          12.5102    0.3205    0.0000 H       1  UNL1        0.0235
     45 H          11.6363    0.3921    0.0000 H       1  UNL1        0.0235
     46 H          10.8440   -1.8225    0.0000 H       1  UNL1        0.0235
     47 H          11.5650   -2.3215    0.0000 H       1  UNL1        0.0235
     48 H          12.0639   -1.6005    0.0000 H       1  UNL1        0.0235
     49 H           9.4851   -2.0155    0.0000 H       1  UNL1        0.0579
     50 H           7.2429   -0.0105    0.0000 H       1  UNL1        0.0420
     51 H           8.5558   -0.0020    0.0000 H       1  UNL1        0.0311
     52 H           9.3042   -0.1005    0.0000 H       1  UNL1        0.0311
     53 H           5.9442    0.6574    0.0000 H       1  UNL1        0.0742
     54 H           5.6129   -1.8726    0.0000 H       1  UNL1        0.0312
     55 H           6.4411   -1.9174    0.0000 H       1  UNL1        0.0312
     56 H           4.8648   -0.3480    0.0000 H       1  UNL1        0.0335
     57 H           7.4382    1.4734    0.0000 H       1  UNL1        0.0787
     58 H           4.1535   -0.4685    0.0000 H       1  UNL1        0.0234
     59 H           3.7151   -1.2278    0.0000 H       1  UNL1        0.0234
     60 H           4.4744   -1.6662    0.0000 H       1  UNL1        0.0234
     61 H           9.0560    0.1969    0.0000 H       1  UNL1        0.0279
     62 H           8.3378    0.6999    0.0000 H       1  UNL1        0.0279
     63 H           7.8348   -0.0184    0.0000 H       1  UNL1        0.0279
     64 H           8.9859    2.0628    0.0000 H       1  UNL1        0.0536
     65 H           7.9486    2.3408    0.0000 H       1  UNL1        0.0536
     66 H           6.0987   -3.6950    0.0000 H       1  UNL1        0.0342
     67 H           6.8580   -4.1334    0.0000 H       1  UNL1        0.0342
     68 H           7.2964   -3.3740    0.0000 H       1  UNL1        0.0342
     69 H           7.1651    3.8445    0.0000 H       1  UNL1        0.0342
     70 H           6.3182    4.0714    0.0000 H       1  UNL1        0.0342
     71 H           6.0913    3.2245    0.0000 H       1  UNL1        0.0342
     72 H           4.6162    2.6665    0.0000 H       1  UNL1        0.0626
     73 H           2.2656    1.1343    0.0000 H       1  UNL1        0.0626
     74 H           3.7315    4.0237    0.0000 H       1  UNL1        0.0618
     75 H           1.3809    2.4914    0.0000 H       1  UNL1        0.0618
     76 H           2.1139    3.9361    0.0000 H       1  UNL1        0.0618
@<TRIPOS>BOND
     1    16     1    1
     2     1    28    1
     3     2    18    1
     4     2    29    1
     5     3    21    1
     6     3    30    1
     7     4    24    2
     8     5    28    2
     9     6    29    2
    10     7    30    2
    11     8     9    1
    12     8    10    1
    13     8    12    1
    14     8    13    1
    15     9    10    1
    16     9    11    1
    17     9    39    1
    18    10    14    1
    19    10    40    1
    20    11    17    1
    21    11    41    1
    22    11    42    1
    23    12    43    1
    24    12    44    1
    25    12    45    1
    26    13    46    1
    27    13    47    1
    28    13    48    1
    29    14    22    2
    30    14    49    1
    31    15    16    1
    32    15    18    1
    33    15    21    1
    34    15    50    1
    35    16    19    1
    36    16    24    1
    37    17    23    1
    38    17    51    1
    39    17    52    1
    40    18    20    1
    41    18    53    1
    42    19    20    1
    43    19    54    1
    44    19    55    1
    45    20    25    1
    46    20    56    1
    47    21    23    1
    48    21    57    1
    49    22    24    1
    50    22    26    1
    51    23    27    2
    52    25    58    1
    53    25    59    1
    54    25    60    1
    55    26    61    1
    56    26    62    1
    57    26    63    1
    58    27    64    1
    59    27    65    1
    60    28    31    1
    61    29    32    1
    62    30    33    1
    63    31    66    1
    64    31    67    1
    65    31    68    1
    66    32    34   ar
    67    32    35   ar
    68    33    69    1
    69    33    70    1
    70    33    71    1
    71    34    36   ar
    72    34    72    1
    73    35    37   ar
    74    35    73    1
    75    36    38   ar
    76    36    74    1
    77    37    38   ar
    78    37    75    1
    79    38    76    1
