@<TRIPOS>MOLECULE
IMPHY017377
 14 13 0 0 0
SMALL
GASTEIGER

@<TRIPOS>ATOM
      1 C           5.1350    0.0950    0.0000 C.3     1  UNL1       -0.3172
      2 C           3.4030    0.0950    0.0000 C.2     1  UNL1        0.0752
      3 C           4.2690    0.5950    0.0000 C.2     1  UNL1       -0.4354
      4 C           6.0010    0.5950    0.0000 C.2     1  UNL1       -0.3733
      5 C           2.5369    0.5950    0.0000 C.cat   1  UNL1        0.1619
      6 C           3.4030   -0.9050    0.0000 C.cat   1  UNL1        0.1619
      7 H           4.7365   -0.3799    0.0000 H       1  UNL1       -0.0403
      8 H           5.5335   -0.3799    0.0000 H       1  UNL1       -0.0403
      9 H           2.0000    0.2850    0.0000 H       1  UNL1        0.3079
     10 H           2.5369    1.2150    0.0000 H       1  UNL1        0.3079
     11 H           3.9399   -1.2150    0.0000 H       1  UNL1        0.3079
     12 H           2.8660   -1.2150    0.0000 H       1  UNL1        0.3079
     13 H           6.5380    0.2850    0.0000 H       1  UNL1       -0.2121
     14 H           6.0010    1.2150    0.0000 H       1  UNL1       -0.2121
@<TRIPOS>UNITY_ATOM_ATTR
3 1
charge -1
4 1
charge -1
5 1
charge 1
6 1
charge 1
@<TRIPOS>BOND
     1     1     3    1
     2     1     4    1
     3     1     7    1
     4     1     8    1
     5     2     3    2
     6     2     5    1
     7     2     6    1
     8     4    13    1
     9     4    14    1
    10     5     9    1
    11     5    10    1
    12     6    11    1
    13     6    12    1
