@<TRIPOS>MOLECULE
IMPHY016304
 49 49 0 0 0
SMALL
GASTEIGER

@<TRIPOS>ATOM
      1 SI          6.3301   -2.0000    0.0000 Si      1  UNL1        0.0000
      2 O           6.3301   -1.0000    0.0000 O.3     1  UNL1        0.0000
      3 C           4.5981    2.0000    0.0000 C.3     1  UNL1        0.0000
      4 C           2.8660   -1.0000    0.0000 C.3     1  UNL1        0.0000
      5 C           4.5981    1.0000    0.0000 C.ar    1  UNL1        0.0000
      6 C           3.7320   -0.5000    0.0000 C.ar    1  UNL1        0.0000
      7 C           3.7320    0.5000    0.0000 C.ar    1  UNL1        0.0000
      8 C           5.4641    0.5000    0.0000 C.ar    1  UNL1        0.0000
      9 C           4.5981   -1.0000    0.0000 C.ar    1  UNL1        0.0000
     10 C           5.4641   -0.5000    0.0000 C.ar    1  UNL1        0.0000
     11 C           4.5981    3.0000    0.0000 C.3     1  UNL1        0.0000
     12 C           5.5981    2.0000    0.0000 C.3     1  UNL1        0.0000
     13 C           3.5981    2.0000    0.0000 C.3     1  UNL1        0.0000
     14 C           2.0000   -1.5000    0.0000 C.3     1  UNL1        0.0000
     15 C           3.3660   -1.8660    0.0000 C.3     1  UNL1        0.0000
     16 C           2.3660   -0.1340    0.0000 C.3     1  UNL1        0.0000
     17 C           6.3301   -3.0000    0.0000 C.3     1  UNL1        0.0000
     18 C           7.3301   -2.0000    0.0000 C.3     1  UNL1        0.0000
     19 C           5.3301   -2.0000    0.0000 C.3     1  UNL1        0.0000
     20 H           3.1951    0.8100    0.0000 H       1  UNL1        0.0000
     21 H           6.0010    0.8100    0.0000 H       1  UNL1        0.0000
     22 H           4.5981   -1.6200    0.0000 H       1  UNL1        0.0000
     23 H           5.2181    3.0000    0.0000 H       1  UNL1        0.0000
     24 H           4.5981    3.6200    0.0000 H       1  UNL1        0.0000
     25 H           3.9781    3.0000    0.0000 H       1  UNL1        0.0000
     26 H           5.5981    1.3800    0.0000 H       1  UNL1        0.0000
     27 H           6.2181    2.0000    0.0000 H       1  UNL1        0.0000
     28 H           5.5981    2.6200    0.0000 H       1  UNL1        0.0000
     29 H           3.5981    2.6200    0.0000 H       1  UNL1        0.0000
     30 H           2.9781    2.0000    0.0000 H       1  UNL1        0.0000
     31 H           3.5981    1.3800    0.0000 H       1  UNL1        0.0000
     32 H           1.6900   -0.9631    0.0000 H       1  UNL1        0.0000
     33 H           1.4631   -1.8100    0.0000 H       1  UNL1        0.0000
     34 H           2.3100   -2.0369    0.0000 H       1  UNL1        0.0000
     35 H           2.8291   -2.1760    0.0000 H       1  UNL1        0.0000
     36 H           3.6760   -2.4030    0.0000 H       1  UNL1        0.0000
     37 H           3.9030   -1.5560    0.0000 H       1  UNL1        0.0000
     38 H           2.9030    0.1760    0.0000 H       1  UNL1        0.0000
     39 H           2.0560    0.4030    0.0000 H       1  UNL1        0.0000
     40 H           1.8291   -0.4440    0.0000 H       1  UNL1        0.0000
     41 H           5.7101   -3.0000    0.0000 H       1  UNL1        0.0000
     42 H           6.3301   -3.6200    0.0000 H       1  UNL1        0.0000
     43 H           6.9501   -3.0000    0.0000 H       1  UNL1        0.0000
     44 H           7.3301   -2.6200    0.0000 H       1  UNL1        0.0000
     45 H           7.9501   -2.0000    0.0000 H       1  UNL1        0.0000
     46 H           7.3301   -1.3800    0.0000 H       1  UNL1        0.0000
     47 H           5.3301   -1.3800    0.0000 H       1  UNL1        0.0000
     48 H           4.7101   -2.0000    0.0000 H       1  UNL1        0.0000
     49 H           5.3301   -2.6200    0.0000 H       1  UNL1        0.0000
@<TRIPOS>BOND
     1     1     2    1
     2     1    17    1
     3     1    18    1
     4     1    19    1
     5     2    10    1
     6     3     5    1
     7     3    11    1
     8     3    12    1
     9     3    13    1
    10     4     6    1
    11     4    14    1
    12     4    15    1
    13     4    16    1
    14     5     7   ar
    15     5     8   ar
    16     6     7   ar
    17     6     9   ar
    18     7    20    1
    19     8    10   ar
    20     8    21    1
    21     9    10   ar
    22     9    22    1
    23    11    23    1
    24    11    24    1
    25    11    25    1
    26    12    26    1
    27    12    27    1
    28    12    28    1
    29    13    29    1
    30    13    30    1
    31    13    31    1
    32    14    32    1
    33    14    33    1
    34    14    34    1
    35    15    35    1
    36    15    36    1
    37    15    37    1
    38    16    38    1
    39    16    39    1
    40    16    40    1
    41    17    41    1
    42    17    42    1
    43    17    43    1
    44    18    44    1
    45    18    45    1
    46    18    46    1
    47    19    47    1
    48    19    48    1
    49    19    49    1
