@<TRIPOS>MOLECULE
IMPHY017696
 34 35 0 0 0
SMALL
GASTEIGER

@<TRIPOS>ATOM
      1 C           2.8660   -0.5000    0.0000 C.3     1  UNL1       -0.0382
      2 C           2.8660    0.5000    0.0000 C.3     1  UNL1       -0.0382
      3 C           2.0000   -1.0000    0.0000 C.3     1  UNL1       -0.0500
      4 C           3.7320   -1.0000    0.0000 C.3     1  UNL1       -0.0500
      5 C           3.7320    1.0000    0.0000 C.3     1  UNL1       -0.0500
      6 C           2.0000    1.0000    0.0000 C.3     1  UNL1       -0.0500
      7 C           2.0000   -2.0000    0.0000 C.3     1  UNL1       -0.0528
      8 C           3.7320   -2.0000    0.0000 C.3     1  UNL1       -0.0528
      9 C           3.7320    2.0000    0.0000 C.3     1  UNL1       -0.0528
     10 C           2.0000    2.0000    0.0000 C.3     1  UNL1       -0.0528
     11 C           2.8660   -2.5000    0.0000 C.3     1  UNL1       -0.0530
     12 C           2.8660    2.5000    0.0000 C.3     1  UNL1       -0.0530
     13 H           3.4030   -0.1900    0.0000 H       1  UNL1        0.0303
     14 H           2.3291    0.1900    0.0000 H       1  UNL1        0.0303
     15 H           1.7880   -0.4174    0.0000 H       1  UNL1        0.0268
     16 H           1.3894   -1.1077    0.0000 H       1  UNL1        0.0268
     17 H           4.3426   -1.1077    0.0000 H       1  UNL1        0.0268
     18 H           3.9441   -0.4174    0.0000 H       1  UNL1        0.0268
     19 H           3.9441    0.4174    0.0000 H       1  UNL1        0.0268
     20 H           4.3426    1.1077    0.0000 H       1  UNL1        0.0268
     21 H           1.3894    1.1077    0.0000 H       1  UNL1        0.0268
     22 H           1.7880    0.4174    0.0000 H       1  UNL1        0.0268
     23 H           1.3894   -1.8923    0.0000 H       1  UNL1        0.0265
     24 H           1.7880   -2.5826    0.0000 H       1  UNL1        0.0265
     25 H           3.9441   -2.5826    0.0000 H       1  UNL1        0.0265
     26 H           4.3426   -1.8923    0.0000 H       1  UNL1        0.0265
     27 H           4.3426    1.8923    0.0000 H       1  UNL1        0.0265
     28 H           3.9441    2.5826    0.0000 H       1  UNL1        0.0265
     29 H           1.7880    2.5826    0.0000 H       1  UNL1        0.0265
     30 H           1.3894    1.8923    0.0000 H       1  UNL1        0.0265
     31 H           2.4675   -2.9750    0.0000 H       1  UNL1        0.0265
     32 H           3.2646   -2.9750    0.0000 H       1  UNL1        0.0265
     33 H           3.2646    2.9750    0.0000 H       1  UNL1        0.0265
     34 H           2.4675    2.9750    0.0000 H       1  UNL1        0.0265
@<TRIPOS>BOND
     1     1     2    1
     2     1     3    1
     3     1     4    1
     4     1    13    1
     5     2     5    1
     6     2     6    1
     7     2    14    1
     8     3     7    1
     9     3    15    1
    10     3    16    1
    11     4     8    1
    12     4    17    1
    13     4    18    1
    14     5     9    1
    15     5    19    1
    16     5    20    1
    17     6    10    1
    18     6    21    1
    19     6    22    1
    20     7    11    1
    21     7    23    1
    22     7    24    1
    23     8    11    1
    24     8    25    1
    25     8    26    1
    26     9    12    1
    27     9    27    1
    28     9    28    1
    29    10    12    1
    30    10    29    1
    31    10    30    1
    32    11    31    1
    33    11    32    1
    34    12    33    1
    35    12    34    1
