@<TRIPOS>MOLECULE
IMPHY006623
 54 58 0 0 0
SMALL
GASTEIGER

@<TRIPOS>ATOM
      1 O           3.4685   -3.6776    0.0000 O.3     1  UNL1       -0.3911
      2 O           6.6555   -2.6421    0.0000 O.3     1  UNL1       -0.4646
      3 O           7.0156   -0.9479    0.0000 O.2     1  UNL1       -0.2453
      4 O           6.4218    3.3162    0.0000 O.3     1  UNL1       -0.4951
      5 N           2.6254   -0.9001    0.0000 N.3     1  UNL1       -0.2936
      6 N           5.7049    0.1005    0.0000 N.pl3   1  UNL1       -0.3163
      7 C           3.5397   -1.0944    0.0000 C.3     1  UNL1        0.0373
      8 C           4.1652   -0.3998    0.0000 C.3     1  UNL1        0.0534
      9 C           3.8286   -1.9834    0.0000 C.3     1  UNL1        0.0354
     10 C           3.7801    0.6358    0.0000 C.3     1  UNL1       -0.0237
     11 C           5.0795   -0.5941    0.0000 C.2     1  UNL1        0.0304
     12 C           2.3366   -0.0111    0.0000 C.3     1  UNL1        0.0007
     13 C           4.7429   -2.1777    0.0000 C.3     1  UNL1       -0.0065
     14 C           4.5018    1.1838    0.0000 C.ar    1  UNL1       -0.0127
     15 C           4.1376   -2.9344    0.0000 C.3     1  UNL1        0.0632
     16 C           5.3683   -1.4831    0.0000 C.2     1  UNL1        0.0553
     17 C           3.2031   -2.6780    0.0000 C.2     1  UNL1       -0.0763
     18 C           2.0000   -1.5947    0.0000 C.3     1  UNL1        0.0175
     19 C           5.4161    0.9895    0.0000 C.ar    1  UNL1        0.0388
     20 C           2.2888   -2.4837    0.0000 C.2     1  UNL1       -0.0733
     21 C           4.2129    2.0728    0.0000 C.ar    1  UNL1       -0.0524
     22 C           5.1157   -3.1424    0.0000 C.3     1  UNL1       -0.0381
     23 C           6.3465   -1.6910    0.0000 C.2     1  UNL1        0.3364
     24 C           6.0415    1.6841    0.0000 C.ar    1  UNL1        0.0015
     25 C           4.8384    2.7674    0.0000 C.ar    1  UNL1       -0.0196
     26 C           5.7527    2.5730    0.0000 C.ar    1  UNL1        0.1219
     27 C           7.6336   -2.8500    0.0000 C.3     1  UNL1        0.0820
     28 C           6.1128    4.2672    0.0000 C.3     1  UNL1        0.0788
     29 H           3.2771   -0.2860    0.0000 H       1  UNL1        0.0484
     30 H           4.3564    0.8645    0.0000 H       1  UNL1        0.0290
     31 H           3.5389    1.2070    0.0000 H       1  UNL1        0.0290
     32 H           2.1034    0.5633    0.0000 H       1  UNL1        0.0427
     33 H           1.7542   -0.2237    0.0000 H       1  UNL1        0.0427
     34 H           4.5106   -2.7526    0.0000 H       1  UNL1        0.0326
     35 H           5.2687   -2.5063    0.0000 H       1  UNL1        0.0326
     36 H           4.3292   -3.5241    0.0000 H       1  UNL1        0.0600
     37 H           3.3947   -3.2677    0.0000 H       1  UNL1        0.0576
     38 H           1.6183   -1.1062    0.0000 H       1  UNL1        0.0470
     39 H           1.4526   -1.8858    0.0000 H       1  UNL1        0.0470
     40 H           6.3114   -0.0284    0.0000 H       1  UNL1        0.1519
     41 H           1.8740   -2.9444    0.0000 H       1  UNL1        0.0582
     42 H           3.6065    2.2017    0.0000 H       1  UNL1        0.0622
     43 H           4.9868   -3.7488    0.0000 H       1  UNL1        0.0255
     44 H           5.7222   -3.2713    0.0000 H       1  UNL1        0.0255
     45 H           5.2446   -2.5359    0.0000 H       1  UNL1        0.0255
     46 H           6.6480    1.5552    0.0000 H       1  UNL1        0.0673
     47 H           3.6601   -4.2672    0.0000 H       1  UNL1        0.2098
     48 H           4.6468    3.3570    0.0000 H       1  UNL1        0.0654
     49 H           7.5047   -3.4564    0.0000 H       1  UNL1        0.0661
     50 H           8.2401   -2.9789    0.0000 H       1  UNL1        0.0661
     51 H           7.7625   -2.2435    0.0000 H       1  UNL1        0.0661
     52 H           6.7025    4.4588    0.0000 H       1  UNL1        0.0660
     53 H           5.9212    4.8569    0.0000 H       1  UNL1        0.0660
     54 H           5.5232    4.0757    0.0000 H       1  UNL1        0.0660
@<TRIPOS>BOND
     1    15     1    1
     2     1    47    1
     3     2    23    1
     4     2    27    1
     5     3    23    2
     6     4    26    1
     7     4    28    1
     8     5     7    1
     9     5    12    1
    10     5    18    1
    11     6    11    1
    12     6    19    1
    13     6    40    1
    14     7     8    1
    15     7     9    1
    16     7    29    1
    17     8    10    1
    18     8    11    1
    19     8    14    1
    20     9    13    1
    21     9    15    1
    22     9    17    1
    23    10    12    1
    24    10    30    1
    25    10    31    1
    26    11    16    2
    27    12    32    1
    28    12    33    1
    29    13    16    1
    30    13    34    1
    31    13    35    1
    32    14    19   ar
    33    14    21   ar
    34    15    22    1
    35    15    36    1
    36    16    23    1
    37    17    20    2
    38    17    37    1
    39    18    20    1
    40    18    38    1
    41    18    39    1
    42    19    24   ar
    43    20    41    1
    44    21    25   ar
    45    21    42    1
    46    22    43    1
    47    22    44    1
    48    22    45    1
    49    24    26   ar
    50    24    46    1
    51    25    26   ar
    52    25    48    1
    53    27    49    1
    54    27    50    1
    55    27    51    1
    56    28    52    1
    57    28    53    1
    58    28    54    1
