@<TRIPOS>MOLECULE
IMPHY008680
 120 133 0 0 0
SMALL
GASTEIGER

@<TRIPOS>ATOM
      1 O           4.1667   -5.8000    0.0000 O.3     1  UNL1       -0.4460
      2 O           5.0000    0.0000    0.0000 O.3     1  UNL1       -0.3704
      3 O           0.5000  -14.3500    0.0000 O.3     1  UNL1       -0.4532
      4 O           7.5000  -10.3500    0.0000 O.3     1  UNL1       -0.4811
      5 O           4.1667   -9.8000    0.0000 O.2     1  UNL1       -0.2880
      6 O           3.8889  -16.0000    0.0000 O.3     1  UNL1       -0.4502
      7 O           5.8333   -6.0000    0.0000 O.2     1  UNL1       -0.2470
      8 O           7.5000   -6.3500    0.0000 O.2     1  UNL1       -0.2890
      9 O           7.8571  -12.1500    0.0000 O.3     1  UNL1       -0.3875
     10 O           1.5000  -14.1500    0.0000 O.2     1  UNL1       -0.2453
     11 O           5.6250  -20.3500    0.0000 O.3     1  UNL1       -0.4501
     12 O           2.5000  -13.8000    0.0000 O.3     1  UNL1       -0.5030
     13 O           6.8750  -18.1500    0.0000 O.3     1  UNL1       -0.5062
     14 O           7.8571  -22.1500    0.0000 O.3     1  UNL1       -0.4504
     15 O           9.3750  -18.0000    0.0000 O.3     1  UNL1       -0.5063
     16 O           5.0000  -16.3500    0.0000 O.2     1  UNL1       -0.2449
     17 O           1.6667  -16.1500    0.0000 O.3     1  UNL1       -0.5009
     18 O           1.8750  -18.1500    0.0000 O.3     1  UNL1       -0.5028
     19 O           9.1667  -24.1500    0.0000 O.3     1  UNL1       -0.4573
     20 O           1.8750  -20.1500    0.0000 O.3     1  UNL1       -0.5028
     21 O           5.8333  -24.0000    0.0000 O.2     1  UNL1       -0.2449
     22 O           4.1667  -23.8000    0.0000 O.2     1  UNL1       -0.2448
     23 O           2.1429  -22.1500    0.0000 O.3     1  UNL1       -0.5009
     24 O           2.5000  -24.1500    0.0000 O.3     1  UNL1       -0.5027
     25 O           7.0000  -28.0000    0.0000 O.2     1  UNL1       -0.2449
     26 O           1.0000  -30.3500    0.0000 O.3     1  UNL1       -0.5028
     27 O           7.0000  -30.0000    0.0000 O.3     1  UNL1       -0.5032
     28 O           2.5000  -32.1500    0.0000 O.3     1  UNL1       -0.5009
     29 O           4.1667  -31.8000    0.0000 O.3     1  UNL1       -0.5028
     30 O           8.7500  -34.0000    0.0000 O.3     1  UNL1       -0.5032
     31 O           6.2500  -33.8000    0.0000 O.3     1  UNL1       -0.5009
     32 C           0.8333   -6.3500    0.0000 C.3     1  UNL1        0.1960
     33 C           1.6667   -4.3500    0.0000 C.3     1  UNL1        0.0788
     34 C           1.6667   -8.3500    0.0000 C.3     1  UNL1        0.0686
     35 C           2.5000   -2.3500    0.0000 C.3     1  UNL1        0.2351
     36 C           2.5000   -6.1500    0.0000 C.2     1  UNL1       -0.0127
     37 C           5.0000   -8.1500    0.0000 C.2     1  UNL1        0.2054
     38 C           5.8333  -10.0000    0.0000 C.2     1  UNL1        0.0211
     39 C           0.8333  -10.3500    0.0000 C.2     1  UNL1        0.0557
     40 C           5.0000  -12.0000    0.0000 C.3     1  UNL1        0.0608
     41 C           8.3333   -7.8000    0.0000 C.3     1  UNL1        0.1482
     42 C           5.0000   -4.1500    0.0000 C.2     1  UNL1        0.3488
     43 C           6.5000  -13.8000    0.0000 C.3     1  UNL1        0.1548
     44 C           8.3333   -3.8000    0.0000 C.2     1  UNL1        0.1993
     45 C           2.5000  -10.1500    0.0000 C.ar    1  UNL1        0.0244
     46 C           9.1667   -6.1500    0.0000 C.2     1  UNL1       -0.0124
     47 C           7.5000  -14.0000    0.0000 C.ar    1  UNL1        0.0473
     48 C           9.1667  -10.1500    0.0000 C.3     1  UNL1        0.1001
     49 C           0.7143  -12.3500    0.0000 C.2     1  UNL1        0.3367
     50 C           7.2222  -15.8000    0.0000 C.3     1  UNL1        0.1811
     51 C           6.4286  -12.3500    0.0000 C.ar    1  UNL1        0.1356
     52 C           9.2857  -11.8000    0.0000 C.3     1  UNL1        0.0092
     53 C           3.5714  -11.8000    0.0000 C.ar    1  UNL1        0.0779
     54 C           8.5000  -14.3500    0.0000 C.ar    1  UNL1        0.0387
     55 C           2.1429  -12.1500    0.0000 C.ar    1  UNL1        0.1668
     56 C           5.6250  -18.3500    0.0000 C.3     1  UNL1        0.1834
     57 C           8.3333  -16.0000    0.0000 C.ar    1  UNL1        0.1277
     58 C           4.5000  -14.3500    0.0000 C.2     1  UNL1        0.3408
     59 C           5.5000  -14.1500    0.0000 C.ar    1  UNL1        0.0453
     60 C           9.4444  -16.3500    0.0000 C.ar    1  UNL1        0.1271
     61 C           6.8750  -20.1500    0.0000 C.3     1  UNL1        0.1774
     62 C           8.1250  -17.8000    0.0000 C.ar    1  UNL1        0.0221
     63 C           3.5000  -14.0000    0.0000 C.ar    1  UNL1        0.2015
     64 C           2.7778  -15.8000    0.0000 C.ar    1  UNL1        0.1708
     65 C           6.1111  -16.1500    0.0000 C.ar    1  UNL1        0.0326
     66 C           9.2857  -21.8000    0.0000 C.3     1  UNL1        0.1333
     67 C           4.3750  -18.0000    0.0000 C.ar    1  UNL1       -0.0326
     68 C           3.1250  -17.8000    0.0000 C.ar    1  UNL1        0.1700
     69 C           6.4286  -22.3500    0.0000 C.2     1  UNL1        0.3405
     70 C           4.3750  -20.0000    0.0000 C.ar    1  UNL1        0.1047
     71 C           5.0000  -22.0000    0.0000 C.2     1  UNL1        0.3434
     72 C           3.1250  -19.8000    0.0000 C.ar    1  UNL1        0.2020
     73 C           3.5714  -21.8000    0.0000 C.ar    1  UNL1        0.1762
     74 C           7.5000  -24.3500    0.0000 C.ar    1  UNL1        0.0740
     75 C           8.7500  -26.0000    0.0000 C.2     1  UNL1        0.3401
     76 C           3.7500  -26.1500    0.0000 C.ar    1  UNL1        0.0458
     77 C           6.2500  -25.8000    0.0000 C.ar    1  UNL1       -0.0017
     78 C           9.0000  -28.3500    0.0000 C.ar    1  UNL1        0.0740
     79 C           3.0000  -28.1500    0.0000 C.ar    1  UNL1        0.0458
     80 C           1.0000  -28.3500    0.0000 C.ar    1  UNL1        0.1708
     81 C           5.0000  -27.8000    0.0000 C.ar    1  UNL1        0.1628
     82 C           3.0000  -30.1500    0.0000 C.ar    1  UNL1        0.2012
     83 C           9.0000  -30.3500    0.0000 C.ar    1  UNL1       -0.0017
     84 C           5.0000  -29.8000    0.0000 C.ar    1  UNL1        0.1708
     85 C           9.1667  -32.1500    0.0000 C.ar    1  UNL1        0.1628
     86 C           5.8333  -32.0000    0.0000 C.ar    1  UNL1        0.2012
     87 H           0.1761   -3.7289    0.0000 H       1  UNL1        0.0429
     88 H           3.1449   -7.7001    0.0000 H       1  UNL1        0.0445
     89 H           3.4033  -12.2413    0.0000 H       1  UNL1        0.0438
     90 H           9.4374   -6.6216    0.0000 H       1  UNL1        0.0808
     91 H           7.9009  -12.9967    0.0000 H       1  UNL1        0.0782
     92 H          10.4856   -7.0817    0.0000 H       1  UNL1        0.0654
     93 H           7.5634   -9.9575    0.0000 H       1  UNL1        0.0637
     94 H           8.8279  -15.9717    0.0000 H       1  UNL1        0.0811
     95 H           7.5000   -2.1500    0.0000 H       1  UNL1        0.2115
     96 H          10.5220  -12.8389    0.0000 H       1  UNL1        0.0342
     97 H           7.6813  -11.6172    0.0000 H       1  UNL1        0.0342
     98 H           4.0730  -17.9041    0.0000 H       1  UNL1        0.0812
     99 H           8.0130  -19.0043    0.0000 H       1  UNL1        0.0808
    100 H           7.4566  -19.2700    0.0000 H       1  UNL1        0.0691
    101 H           9.5000  -14.1500    0.0000 H       1  UNL1        0.2100
    102 H           0.5556  -16.3500    0.0000 H       1  UNL1        0.2923
    103 H          10.8566  -22.1741    0.0000 H       1  UNL1        0.0736
    104 H           9.9398  -20.3236    0.0000 H       1  UNL1        0.0736
    105 H           8.1250  -19.8000    0.0000 H       1  UNL1        0.2921
    106 H           9.3750  -20.0000    0.0000 H       1  UNL1        0.2921
    107 H           0.6250  -18.3500    0.0000 H       1  UNL1        0.2924
    108 H           2.8735  -17.4058    0.0000 H       1  UNL1        0.0634
    109 H           0.6250  -20.3500    0.0000 H       1  UNL1        0.2923
    110 H           0.7143  -22.3500    0.0000 H       1  UNL1        0.2923
    111 H           4.9500  -24.8421    0.0000 H       1  UNL1        0.0664
    112 H           0.8333  -24.3500    0.0000 H       1  UNL1        0.2924
    113 H           1.2500  -26.3500    0.0000 H       1  UNL1        0.2923
    114 H           7.3869  -30.4245    0.0000 H       1  UNL1        0.0664
    115 H           0.8333  -32.3500    0.0000 H       1  UNL1        0.2923
    116 H           7.5000  -32.3500    0.0000 H       1  UNL1        0.2923
    117 H           1.2500  -34.3500    0.0000 H       1  UNL1        0.2924
    118 H           3.7500  -34.1500    0.0000 H       1  UNL1        0.2923
    119 H           7.5000  -36.1500    0.0000 H       1  UNL1        0.2923
    120 H           2.5000  -36.3500    0.0000 H       1  UNL1        0.2924
@<TRIPOS>BOND
     1     1    32    1
     2     1    42    1
     3     2    35    1
     4     2    95    1
     5     3    43    1
     6     3    49    1
     7     4    41    1
     8     4    51    1
     9     5    37    2
    10     6    50    1
    11     6    58    1
    12     7    42    2
    13     8    44    2
    14     9    48    1
    15     9   101    1
    16    10    49    2
    17    11    56    1
    18    11    69    1
    19    12    55    1
    20    12   102    1
    21    13    57    1
    22    13   105    1
    23    14    61    1
    24    14    71    1
    25    15    60    1
    26    15   106    1
    27    16    58    2
    28    17    63    1
    29    17   107    1
    30    18    64    1
    31    18   109    1
    32    19    66    1
    33    19    75    1
    34    20    68    1
    35    20   110    1
    36    21    69    2
    37    22    71    2
    38    23    72    1
    39    23   112    1
    40    24    73    1
    41    24   113    1
    42    25    75    2
    43    26    80    1
    44    26   115    1
    45    27    81    1
    46    27   116    1
    47    28    82    1
    48    28   117    1
    49    29    84    1
    50    29   118    1
    51    30    85    1
    52    30   119    1
    53    31    86    1
    54    31   120    1
    55    32    33    1
    56    32    34    1
    57    32    37    1
    58    33    35    1
    59    33    36    1
    60    33    87    1
    61    34    39    1
    62    34    45    1
    63    34    88    1
    64    35    42    1
    65    35    44    1
    66    36    41    1
    67    36    46    2
    68    37    38    1
    69    38    39    2
    70    38    40    1
    71    39    49    1
    72    40    43    1
    73    40    47    1
    74    40    89    1
    75    41    48    1
    76    41    90    1
    77    43    50    1
    78    43    91    1
    79    44    46    1
    80    45    53   ar
    81    45    55   ar
    82    46    92    1
    83    47    51   ar
    84    47    57   ar
    85    48    52    1
    86    48    93    1
    87    50    56    1
    88    50    94    1
    89    51    54   ar
    90    52    54    1
    91    52    96    1
    92    52    97    1
    93    53    58    1
    94    53    59   ar
    95    54    60   ar
    96    55    63   ar
    97    56    61    1
    98    56    98    1
    99    57    62   ar
   100    59    64   ar
   101    59    65    1
   102    60    62   ar
   103    61    66    1
   104    61    99    1
   105    62   100    1
   106    63    64   ar
   107    65    67   ar
   108    65    68   ar
   109    66   103    1
   110    66   104    1
   111    67    70   ar
   112    67   108    1
   113    68    72   ar
   114    69    74    1
   115    70    71    1
   116    70    73   ar
   117    72    73   ar
   118    74    76   ar
   119    74    77   ar
   120    75    78    1
   121    76    79    1
   122    76    80   ar
   123    77    81   ar
   124    77   111    1
   125    78    79   ar
   126    78    83   ar
   127    79    84   ar
   128    80    82   ar
   129    81    82   ar
   130    83    85   ar
   131    83   114    1
   132    84    86   ar
   133    85    86   ar
