@<TRIPOS>MOLECULE
IMPHY005192
 37 39 0 0 0
SMALL
GASTEIGER

@<TRIPOS>ATOM
      1 O           5.1482    2.1688    0.0000 O.3     1  UNL1       -0.4574
      2 O           5.7812   -1.0396    0.0000 O.3     1  UNL1       -0.3901
      3 O           4.6840   -2.5270    0.0000 O.2     1  UNL1       -0.2920
      4 O           6.8881    2.5270    0.0000 O.2     1  UNL1       -0.2453
      5 C           4.0984   -0.8500    0.0000 C.3     1  UNL1        0.0631
      6 C           3.1974   -0.4161    0.0000 C.3     1  UNL1       -0.0050
      7 C           4.9994   -0.4161    0.0000 C.3     1  UNL1        0.0785
      8 C           2.9749    0.5588    0.0000 C.3     1  UNL1       -0.0333
      9 C           5.2219    0.5588    0.0000 C.3     1  UNL1        0.0543
     10 C           4.5984    1.3406    0.0000 C.3     1  UNL1        0.1130
     11 C           3.5984    1.3406    0.0000 C.3     1  UNL1       -0.0118
     12 C           3.9624   -1.8347    0.0000 C.2     1  UNL1        0.1647
     13 C           4.9994   -1.2839    0.0000 C.3     1  UNL1       -0.0495
     14 C           2.5124   -1.1364    0.0000 C.2     1  UNL1       -0.0763
     15 C           6.1517    0.9105    0.0000 C.2     1  UNL1        0.0386
     16 C           2.0000    0.7813    0.0000 C.3     1  UNL1       -0.0617
     17 C           2.9842   -2.0114    0.0000 C.2     1  UNL1       -0.0222
     18 C           6.1062    1.9036    0.0000 C.2     1  UNL1        0.3353
     19 C           6.9872    0.3611    0.0000 C.2     1  UNL1       -0.0882
     20 H           2.3778   -0.1911    0.0000 H       1  UNL1        0.0356
     21 H           5.5846   -0.2113    0.0000 H       1  UNL1        0.0610
     22 H           2.7702    1.1440    0.0000 H       1  UNL1        0.0305
     23 H           5.8627    0.0004    0.0000 H       1  UNL1        0.0412
     24 H           4.1966    2.0897    0.0000 H       1  UNL1        0.0741
     25 H           3.7364    1.9451    0.0000 H       1  UNL1        0.0304
     26 H           3.0398    1.6096    0.0000 H       1  UNL1        0.0304
     27 H           4.7304   -1.8425    0.0000 H       1  UNL1        0.0240
     28 H           5.5580   -1.5529    0.0000 H       1  UNL1        0.0240
     29 H           5.2684   -0.7253    0.0000 H       1  UNL1        0.0240
     30 H           1.8978   -1.0542    0.0000 H       1  UNL1        0.0576
     31 H           2.1380    1.3858    0.0000 H       1  UNL1        0.0233
     32 H           1.3955    0.9193    0.0000 H       1  UNL1        0.0233
     33 H           1.8620    0.1769    0.0000 H       1  UNL1        0.0233
     34 H           2.7152   -2.5700    0.0000 H       1  UNL1        0.0649
     35 H           6.3584   -0.8131    0.0000 H       1  UNL1        0.2098
     36 H           6.9512   -0.2579    0.0000 H       1  UNL1        0.0540
     37 H           7.5412    0.6394    0.0000 H       1  UNL1        0.0540
@<TRIPOS>BOND
     1     1    10    1
     2     1    18    1
     3     7     2    1
     4     2    35    1
     5     3    12    2
     6     4    18    2
     7     5     6    1
     8     5     7    1
     9     5    12    1
    10     5    13    1
    11     6     8    1
    12     6    14    1
    13     6    20    1
    14     7     9    1
    15     7    21    1
    16     8    11    1
    17     8    16    1
    18     8    22    1
    19     9    10    1
    20     9    15    1
    21     9    23    1
    22    10    11    1
    23    10    24    1
    24    11    25    1
    25    11    26    1
    26    12    17    1
    27    13    27    1
    28    13    28    1
    29    13    29    1
    30    14    17    2
    31    14    30    1
    32    15    18    1
    33    15    19    2
    34    16    31    1
    35    16    32    1
    36    16    33    1
    37    17    34    1
    38    19    36    1
    39    19    37    1
