@<TRIPOS>MOLECULE
IMPHY003282
 113 119 0 0 0
SMALL
GASTEIGER

@<TRIPOS>ATOM
      1 O           5.1483   -5.7417    0.0000 O.3     1  UNL1       -0.3684
      2 O           6.3178   -4.1322    0.0000 O.3     1  UNL1       -0.4528
      3 O           7.0057   -3.2798    0.0000 O.3     1  UNL1       -0.4545
      4 O           7.4821   -1.9332    0.0000 O.3     1  UNL1       -0.3839
      5 O           2.4962   -3.0851    0.0000 O.3     1  UNL1       -0.3907
      6 O           3.5446   -0.3023    0.0000 O.3     1  UNL1       -0.4493
      7 O           2.8690   -1.9332    0.0000 O.2     1  UNL1       -0.2924
      8 O           7.5875    0.4787    0.0000 O.3     1  UNL1       -0.4550
      9 O           7.6038   -5.2924    0.0000 O.2     1  UNL1       -0.2511
     10 O           8.4245   -2.2863    0.0000 O.2     1  UNL1       -0.2449
     11 O           4.7693    0.9225    0.0000 O.2     1  UNL1       -0.2511
     12 O           6.3628    1.7035    0.0000 O.2     1  UNL1       -0.2478
     13 O           9.0017    1.8929    0.0000 O.3     1  UNL1       -0.3786
     14 O           7.2593    5.0495    0.0000 O.2     1  UNL1       -0.2702
     15 N           6.8110    3.3765    0.0000 N.am    1  UNL1       -0.3015
     16 C           5.1755   -3.2398    0.0000 C.3     1  UNL1        0.0580
     17 C           5.3274   -4.2703    0.0000 C.3     1  UNL1        0.1696
     18 C           4.2517   -2.8571    0.0000 C.3     1  UNL1        0.0662
     19 C           4.5059   -4.9108    0.0000 C.3     1  UNL1        0.1035
     20 C           6.0994   -2.8571    0.0000 C.3     1  UNL1        0.1404
     21 C           6.4821   -1.9332    0.0000 C.3     1  UNL1        0.1157
     22 C           3.4156   -3.4784    0.0000 C.3     1  UNL1        0.0704
     23 C           3.5436   -4.5122    0.0000 C.3     1  UNL1        0.0043
     24 C           6.0994   -1.0094    0.0000 C.3     1  UNL1        0.0227
     25 C           5.9766   -5.0959    0.0000 C.3     1  UNL1        0.0909
     26 C           3.8690   -1.9332    0.0000 C.2     1  UNL1        0.1866
     27 C           7.1552   -1.1916    0.0000 C.3     1  UNL1        0.0215
     28 C           5.1755   -0.6267    0.0000 C.2     1  UNL1       -0.0114
     29 C           3.3278   -2.4744    0.0000 C.3     1  UNL1       -0.0498
     30 C           4.2517   -1.0094    0.0000 C.3     1  UNL1        0.1831
     31 C           6.8804   -0.2284    0.0000 C.3     1  UNL1        0.1271
     32 C           5.9172    0.0464    0.0000 C.2     1  UNL1       -0.0288
     33 C           6.3971    0.1014    0.0000 C.3     1  UNL1       -0.0532
     34 C           7.2102   -0.7117    0.0000 C.3     1  UNL1       -0.0532
     35 C           5.6897    1.0202    0.0000 C.3     1  UNL1       -0.0399
     36 C           6.6259   -5.0835    0.0000 C.2     1  UNL1        0.3046
     37 C           8.0019   -3.1927    0.0000 C.2     1  UNL1        0.3395
     38 C           5.9560   -5.8260    0.0000 C.3     1  UNL1        0.0333
     39 C           3.8034    0.6637    0.0000 C.2     1  UNL1        0.3049
     40 C           7.3287    1.4446    0.0000 C.2     1  UNL1        0.3388
     41 C           8.5755   -4.0118    0.0000 C.ar    1  UNL1        0.0590
     42 C           8.0358    2.1518    0.0000 C.3     1  UNL1        0.1740
     43 C           3.0963    1.3708    0.0000 C.3     1  UNL1        0.0333
     44 C           9.5717   -3.9245    0.0000 C.ar    1  UNL1       -0.0478
     45 C           8.1530   -4.9181    0.0000 C.ar    1  UNL1       -0.0478
     46 C           7.7770    3.1177    0.0000 C.3     1  UNL1        0.0850
     47 C          10.1453   -4.7436    0.0000 C.ar    1  UNL1       -0.0610
     48 C           8.7266   -5.7372    0.0000 C.ar    1  UNL1       -0.0610
     49 C           9.7228   -5.6500    0.0000 C.ar    1  UNL1       -0.0617
     50 C           8.4841    3.8248    0.0000 C.ar    1  UNL1       -0.0242
     51 C           9.4500    3.5660    0.0000 C.ar    1  UNL1       -0.0567
     52 C           8.2253    4.7907    0.0000 C.ar    1  UNL1       -0.0567
     53 C           6.5522    4.3424    0.0000 C.2     1  UNL1        0.2446
     54 C          10.1571    4.2731    0.0000 C.ar    1  UNL1       -0.0614
     55 C           8.9324    5.4978    0.0000 C.ar    1  UNL1       -0.0614
     56 C           5.5863    4.6012    0.0000 C.ar    1  UNL1        0.0367
     57 C           9.8983    5.2390    0.0000 C.ar    1  UNL1       -0.0617
     58 C           5.3275    5.5672    0.0000 C.ar    1  UNL1       -0.0496
     59 C           4.8792    3.8941    0.0000 C.ar    1  UNL1       -0.0496
     60 C           4.3616    5.8260    0.0000 C.ar    1  UNL1       -0.0610
     61 C           3.9133    4.1530    0.0000 C.ar    1  UNL1       -0.0610
     62 C           3.6545    5.1189    0.0000 C.ar    1  UNL1       -0.0617
     63 H           5.9608   -3.5651    0.0000 H       1  UNL1        0.0388
     64 H           3.9897   -5.5860    0.0000 H       1  UNL1        0.0638
     65 H           6.6773   -2.6324    0.0000 H       1  UNL1        0.0768
     66 H           2.9201   -3.8511    0.0000 H       1  UNL1        0.0604
     67 H           2.9243   -4.4819    0.0000 H       1  UNL1        0.0317
     68 H           3.4078   -5.1171    0.0000 H       1  UNL1        0.0317
     69 H           6.3585   -5.5844    0.0000 H       1  UNL1        0.0601
     70 H           6.4645   -4.7134    0.0000 H       1  UNL1        0.0601
     71 H           7.5297   -1.6857    0.0000 H       1  UNL1        0.0334
     72 H           7.7099   -0.9145    0.0000 H       1  UNL1        0.0334
     73 H           3.5650   -1.9016    0.0000 H       1  UNL1        0.0240
     74 H           2.7550   -2.2372    0.0000 H       1  UNL1        0.0240
     75 H           3.0905   -3.0472    0.0000 H       1  UNL1        0.0240
     76 H           4.3726   -0.4013    0.0000 H       1  UNL1        0.0864
     77 H           7.4806   -0.3840    0.0000 H       1  UNL1        0.0783
     78 H           6.9959   -0.0590    0.0000 H       1  UNL1        0.0239
     79 H           6.5575    0.7003    0.0000 H       1  UNL1        0.0239
     80 H           5.7982    0.2619    0.0000 H       1  UNL1        0.0239
     81 H           7.3707   -1.3106    0.0000 H       1  UNL1        0.0239
     82 H           7.8091   -0.5513    0.0000 H       1  UNL1        0.0239
     83 H           7.0498   -0.1129    0.0000 H       1  UNL1        0.0239
     84 H           7.7921   -1.3963    0.0000 H       1  UNL1        0.2104
     85 H           2.0000   -3.4568    0.0000 H       1  UNL1        0.2098
     86 H           6.2935    1.1613    0.0000 H       1  UNL1        0.0276
     87 H           5.5487    1.6240    0.0000 H       1  UNL1        0.0276
     88 H           5.0860    0.8792    0.0000 H       1  UNL1        0.0276
     89 H           5.4957   -5.4107    0.0000 H       1  UNL1        0.0342
     90 H           5.5406   -6.2863    0.0000 H       1  UNL1        0.0342
     91 H           6.4163   -6.2413    0.0000 H       1  UNL1        0.0342
     92 H           8.1963    1.5529    0.0000 H       1  UNL1        0.0733
     93 H           3.5347    1.8092    0.0000 H       1  UNL1        0.0342
     94 H           2.6579    1.8092    0.0000 H       1  UNL1        0.0342
     95 H           2.6579    0.9324    0.0000 H       1  UNL1        0.0342
     96 H           9.8337   -3.3626    0.0000 H       1  UNL1        0.0626
     97 H           7.5353   -4.9722    0.0000 H       1  UNL1        0.0626
     98 H           7.6165    3.7166    0.0000 H       1  UNL1        0.0580
     99 H          10.7630   -4.6896    0.0000 H       1  UNL1        0.0618
    100 H           8.4646   -6.2991    0.0000 H       1  UNL1        0.0618
    101 H           9.1622    1.2941    0.0000 H       1  UNL1        0.2106
    102 H          10.0784   -6.1578    0.0000 H       1  UNL1        0.0618
    103 H           6.3726    2.9381    0.0000 H       1  UNL1        0.1497
    104 H           9.6105    2.9671    0.0000 H       1  UNL1        0.0621
    105 H           7.6264    4.9512    0.0000 H       1  UNL1        0.0621
    106 H          10.7560    4.1126    0.0000 H       1  UNL1        0.0618
    107 H           8.7719    6.0967    0.0000 H       1  UNL1        0.0618
    108 H          10.3367    5.6774    0.0000 H       1  UNL1        0.0618
    109 H           5.7659    6.0056    0.0000 H       1  UNL1        0.0625
    110 H           5.0397    3.2953    0.0000 H       1  UNL1        0.0625
    111 H           4.2011    6.4249    0.0000 H       1  UNL1        0.0618
    112 H           3.4749    3.7145    0.0000 H       1  UNL1        0.0618
    113 H           3.0556    5.2793    0.0000 H       1  UNL1        0.0618
@<TRIPOS>BOND
     1     1    19    1
     2     1    25    1
     3    17     2    1
     4     2    36    1
     5    20     3    1
     6     3    37    1
     7    21     4    1
     8     4    84    1
     9    22     5    1
    10     5    85    1
    11    30     6    1
    12     6    39    1
    13     7    26    2
    14    31     8    1
    15     8    40    1
    16     9    36    2
    17    10    37    2
    18    11    39    2
    19    12    40    2
    20    42    13    1
    21    13   101    1
    22    14    53    2
    23    46    15    1
    24    15    53   am
    25    15   103    1
    26    16    17    1
    27    16    18    1
    28    16    20    1
    29    16    63    1
    30    17    19    1
    31    17    25    1
    32    18    22    1
    33    18    26    1
    34    18    29    1
    35    19    23    1
    36    19    64    1
    37    20    21    1
    38    20    65    1
    39    21    24    1
    40    21    27    1
    41    22    23    1
    42    22    66    1
    43    23    67    1
    44    23    68    1
    45    24    28    1
    46    24    33    1
    47    24    34    1
    48    25    69    1
    49    25    70    1
    50    26    30    1
    51    27    31    1
    52    27    71    1
    53    27    72    1
    54    28    30    1
    55    28    32    2
    56    29    73    1
    57    29    74    1
    58    29    75    1
    59    30    76    1
    60    31    32    1
    61    31    77    1
    62    32    35    1
    63    33    78    1
    64    33    79    1
    65    33    80    1
    66    34    81    1
    67    34    82    1
    68    34    83    1
    69    35    86    1
    70    35    87    1
    71    35    88    1
    72    36    38    1
    73    37    41    1
    74    38    89    1
    75    38    90    1
    76    38    91    1
    77    39    43    1
    78    40    42    1
    79    41    44   ar
    80    41    45   ar
    81    42    46    1
    82    42    92    1
    83    43    93    1
    84    43    94    1
    85    43    95    1
    86    44    47   ar
    87    44    96    1
    88    45    48   ar
    89    45    97    1
    90    46    50    1
    91    46    98    1
    92    47    49   ar
    93    47    99    1
    94    48    49   ar
    95    48   100    1
    96    49   102    1
    97    50    51   ar
    98    50    52   ar
    99    51    54   ar
   100    51   104    1
   101    52    55   ar
   102    52   105    1
   103    53    56    1
   104    54    57   ar
   105    54   106    1
   106    55    57   ar
   107    55   107    1
   108    56    58   ar
   109    56    59   ar
   110    57   108    1
   111    58    60   ar
   112    58   109    1
   113    59    61   ar
   114    59   110    1
   115    60    62   ar
   116    60   111    1
   117    61    62   ar
   118    61   112    1
   119    62   113    1
