@<TRIPOS>MOLECULE
IMPHY017951
 12 12 0 0 0
SMALL
GASTEIGER

@<TRIPOS>ATOM
      1 C           0.0000   -3.9885    0.0000 C.3     1  UNL1        0.0340
      2 C           1.1540   -3.3238    0.0000 C.2     1  UNL1        0.0131
      3 C           1.1540   -1.9943    0.0000 C.2     1  UNL1       -0.0237
      4 C           2.3027   -1.3295    0.0000 C.3     1  UNL1        0.0405
      5 C           1.4465   -0.3084    0.0000 C.3     1  UNL1        0.0089
      6 C           3.1589   -0.3084    0.0000 C.3     1  UNL1        0.0089
      7 C           3.4567   -1.9943    0.0000 C.2     1  UNL1        0.0263
      8 C           4.6054   -1.3295    0.0000 C.2     1  UNL1        0.2303
      9 O           4.6054    0.0000    0.0000 O.2     1  UNL1       -0.2835
     10 C           3.4567   -3.3238    0.0000 C.2     1  UNL1        0.0410
     11 C           2.3027   -3.9885    0.0000 C.2     1  UNL1        0.1912
     12 O           2.3027   -5.3180    0.0000 O.2     1  UNL1       -0.2869
@<TRIPOS>BOND
     1     1     2    1
     2     2     3    2
     3     2    11    1
     4     3     4    1
     5     4     5    1
     6     4     6    1
     7     4     7    1
     8     7     8    1
     9     7    10    2
    10     8     9    2
    11    10    11    1
    12    11    12    2
