@<TRIPOS>MOLECULE
IMPHY012608
 57 56 0 0 0
SMALL
GASTEIGER

@<TRIPOS>ATOM
      1 O           2.8660    0.7500    0.0000 O.3     1  UNL1       -0.4679
      2 O           3.7320   -0.7500    0.0000 O.2     1  UNL1       -0.2509
      3 C           8.9282    0.2500    0.0000 C.3     1  UNL1       -0.0531
      4 C           9.7942    0.7500    0.0000 C.3     1  UNL1       -0.0531
      5 C           8.0622    0.7500    0.0000 C.3     1  UNL1       -0.0531
      6 C          10.6603    0.2500    0.0000 C.3     1  UNL1       -0.0530
      7 C           7.1962    0.2500    0.0000 C.3     1  UNL1       -0.0530
      8 C          11.5263    0.7500    0.0000 C.3     1  UNL1       -0.0528
      9 C           6.3301    0.7500    0.0000 C.3     1  UNL1       -0.0526
     10 C          12.3923    0.2500    0.0000 C.3     1  UNL1       -0.0496
     11 C           5.4641    0.2500    0.0000 C.3     1  UNL1       -0.0430
     12 C          13.2583    0.7500    0.0000 C.3     1  UNL1       -0.0348
     13 C           4.5981    0.7500    0.0000 C.3     1  UNL1        0.0449
     14 C          14.1244    0.2500    0.0000 C.2     1  UNL1       -0.0879
     15 C          15.8564    0.2500    0.0000 C.3     1  UNL1       -0.0348
     16 C          14.9904    0.7500    0.0000 C.2     1  UNL1       -0.0879
     17 C          16.7224    0.7500    0.0000 C.3     1  UNL1       -0.0499
     18 C           3.7320    0.2500    0.0000 C.2     1  UNL1        0.3068
     19 C          17.5885    0.2500    0.0000 C.3     1  UNL1       -0.0556
     20 C          18.4545    0.7500    0.0000 C.3     1  UNL1       -0.0653
     21 C           2.0000    0.2500    0.0000 C.3     1  UNL1        0.0817
     22 H           8.5297   -0.2249    0.0000 H       1  UNL1        0.0265
     23 H           9.3267   -0.2249    0.0000 H       1  UNL1        0.0265
     24 H          10.1928    1.2250    0.0000 H       1  UNL1        0.0265
     25 H           9.3957    1.2250    0.0000 H       1  UNL1        0.0265
     26 H           8.4607    1.2250    0.0000 H       1  UNL1        0.0265
     27 H           7.6636    1.2250    0.0000 H       1  UNL1        0.0265
     28 H          10.2617   -0.2249    0.0000 H       1  UNL1        0.0265
     29 H          11.0588   -0.2249    0.0000 H       1  UNL1        0.0265
     30 H           6.7976   -0.2249    0.0000 H       1  UNL1        0.0265
     31 H           7.5947   -0.2249    0.0000 H       1  UNL1        0.0265
     32 H          11.9248    1.2250    0.0000 H       1  UNL1        0.0265
     33 H          11.1278    1.2250    0.0000 H       1  UNL1        0.0265
     34 H           6.7287    1.2250    0.0000 H       1  UNL1        0.0265
     35 H           5.9316    1.2250    0.0000 H       1  UNL1        0.0265
     36 H          11.9938   -0.2249    0.0000 H       1  UNL1        0.0268
     37 H          12.7908   -0.2249    0.0000 H       1  UNL1        0.0268
     38 H           5.0656   -0.2249    0.0000 H       1  UNL1        0.0270
     39 H           5.8626   -0.2249    0.0000 H       1  UNL1        0.0270
     40 H          13.6569    1.2250    0.0000 H       1  UNL1        0.0307
     41 H          12.8598    1.2250    0.0000 H       1  UNL1        0.0307
     42 H           4.9966    1.2250    0.0000 H       1  UNL1        0.0377
     43 H           4.1996    1.2250    0.0000 H       1  UNL1        0.0377
     44 H          14.1244   -0.3700    0.0000 H       1  UNL1        0.0569
     45 H          15.4579   -0.2249    0.0000 H       1  UNL1        0.0307
     46 H          16.2549   -0.2249    0.0000 H       1  UNL1        0.0307
     47 H          14.9904    1.3700    0.0000 H       1  UNL1        0.0569
     48 H          17.1210    1.2250    0.0000 H       1  UNL1        0.0268
     49 H          16.3239    1.2250    0.0000 H       1  UNL1        0.0268
     50 H          17.1899   -0.2249    0.0000 H       1  UNL1        0.0263
     51 H          17.9870   -0.2249    0.0000 H       1  UNL1        0.0263
     52 H          18.7645    0.2131    0.0000 H       1  UNL1        0.0230
     53 H          18.9914    1.0600    0.0000 H       1  UNL1        0.0230
     54 H          18.1445    1.2869    0.0000 H       1  UNL1        0.0230
     55 H           1.6900    0.7869    0.0000 H       1  UNL1        0.0661
     56 H           1.4631   -0.0600    0.0000 H       1  UNL1        0.0661
     57 H           2.3100   -0.2869    0.0000 H       1  UNL1        0.0661
@<TRIPOS>BOND
     1     1    18    1
     2     1    21    1
     3     2    18    2
     4     3     4    1
     5     3     5    1
     6     3    22    1
     7     3    23    1
     8     4     6    1
     9     4    24    1
    10     4    25    1
    11     5     7    1
    12     5    26    1
    13     5    27    1
    14     6     8    1
    15     6    28    1
    16     6    29    1
    17     7     9    1
    18     7    30    1
    19     7    31    1
    20     8    10    1
    21     8    32    1
    22     8    33    1
    23     9    11    1
    24     9    34    1
    25     9    35    1
    26    10    12    1
    27    10    36    1
    28    10    37    1
    29    11    13    1
    30    11    38    1
    31    11    39    1
    32    12    14    1
    33    12    40    1
    34    12    41    1
    35    13    18    1
    36    13    42    1
    37    13    43    1
    38    14    16    2
    39    14    44    1
    40    15    16    1
    41    15    17    1
    42    15    45    1
    43    15    46    1
    44    16    47    1
    45    17    19    1
    46    17    48    1
    47    17    49    1
    48    19    20    1
    49    19    50    1
    50    19    51    1
    51    20    52    1
    52    20    53    1
    53    20    54    1
    54    21    55    1
    55    21    56    1
    56    21    57    1
