@<TRIPOS>MOLECULE
IMPHY005571
 53 52 0 0 0
SMALL
GASTEIGER

@<TRIPOS>ATOM
      1 O           6.3301    2.0950    0.0000 O.3     1  UNL1       -0.3878
      2 O          13.2583   -3.9050    0.0000 O.3     1  UNL1       -0.4806
      3 O          14.1244   -2.4050    0.0000 O.2     1  UNL1       -0.2510
      4 C          11.5263    0.0950    0.0000 C.3     1  UNL1       -0.0530
      5 C          10.6603    0.5950    0.0000 C.3     1  UNL1       -0.0528
      6 C          11.5263   -0.9050    0.0000 C.3     1  UNL1       -0.0526
      7 C          10.6603    1.5950    0.0000 C.3     1  UNL1       -0.0496
      8 C          12.3923   -1.4050    0.0000 C.3     1  UNL1       -0.0430
      9 C           4.5981    3.0950    0.0000 C.3     1  UNL1       -0.0504
     10 C           5.4641    3.5950    0.0000 C.3     1  UNL1       -0.0232
     11 C           3.7320    3.5950    0.0000 C.3     1  UNL1       -0.0532
     12 C           9.7942    2.0950    0.0000 C.3     1  UNL1       -0.0345
     13 C           6.3301    3.0950    0.0000 C.3     1  UNL1        0.0736
     14 C           2.8660    3.0950    0.0000 C.3     1  UNL1       -0.0559
     15 C          12.3923   -2.4050    0.0000 C.3     1  UNL1        0.0448
     16 C           9.7942    3.0950    0.0000 C.2     1  UNL1       -0.0840
     17 C           7.1962    3.5950    0.0000 C.2     1  UNL1       -0.0559
     18 C           2.0000    3.5950    0.0000 C.3     1  UNL1       -0.0653
     19 C           8.9282    3.5950    0.0000 C.2     1  UNL1       -0.0659
     20 C           8.0622    3.0950    0.0000 C.2     1  UNL1       -0.0636
     21 C          13.2583   -2.9050    0.0000 C.2     1  UNL1        0.3047
     22 H          12.1369   -0.0127    0.0000 H       1  UNL1        0.0265
     23 H          11.7383    0.6776    0.0000 H       1  UNL1        0.0265
     24 H          10.0497    0.7027    0.0000 H       1  UNL1        0.0265
     25 H          10.4482    0.0124    0.0000 H       1  UNL1        0.0265
     26 H          10.9157   -0.7973    0.0000 H       1  UNL1        0.0265
     27 H          11.3142   -1.4876    0.0000 H       1  UNL1        0.0265
     28 H          11.2708    1.4873    0.0000 H       1  UNL1        0.0268
     29 H          10.8723    2.1776    0.0000 H       1  UNL1        0.0268
     30 H          13.0029   -1.5127    0.0000 H       1  UNL1        0.0270
     31 H          12.6044   -0.8224    0.0000 H       1  UNL1        0.0270
     32 H           4.1996    2.6200    0.0000 H       1  UNL1        0.0266
     33 H           4.9966    2.6200    0.0000 H       1  UNL1        0.0266
     34 H           5.8626    4.0700    0.0000 H       1  UNL1        0.0293
     35 H           5.0656    4.0700    0.0000 H       1  UNL1        0.0293
     36 H           4.1306    4.0700    0.0000 H       1  UNL1        0.0265
     37 H           3.3335    4.0700    0.0000 H       1  UNL1        0.0265
     38 H           9.1836    2.2027    0.0000 H       1  UNL1        0.0307
     39 H           9.5822    1.5124    0.0000 H       1  UNL1        0.0307
     40 H           6.8671    2.7850    0.0000 H       1  UNL1        0.0638
     41 H           2.4675    2.6200    0.0000 H       1  UNL1        0.0263
     42 H           3.2646    2.6200    0.0000 H       1  UNL1        0.0263
     43 H          11.7817   -2.2973    0.0000 H       1  UNL1        0.0377
     44 H          12.1803   -2.9876    0.0000 H       1  UNL1        0.0377
     45 H          10.3312    3.4050    0.0000 H       1  UNL1        0.0572
     46 H           7.1962    4.2150    0.0000 H       1  UNL1        0.0597
     47 H           2.3100    4.1319    0.0000 H       1  UNL1        0.0230
     48 H           1.4631    3.9050    0.0000 H       1  UNL1        0.0230
     49 H           1.6900    3.0581    0.0000 H       1  UNL1        0.0230
     50 H           8.9282    4.2150    0.0000 H       1  UNL1        0.0614
     51 H           8.0622    2.4750    0.0000 H       1  UNL1        0.0615
     52 H           5.7932    1.7850    0.0000 H       1  UNL1        0.2102
     53 H          13.7953   -4.2150    0.0000 H       1  UNL1        0.2951
@<TRIPOS>BOND
     1     1    13    1
     2     1    52    1
     3     2    21    1
     4     2    53    1
     5     3    21    2
     6     4     5    1
     7     4     6    1
     8     4    22    1
     9     4    23    1
    10     5     7    1
    11     5    24    1
    12     5    25    1
    13     6     8    1
    14     6    26    1
    15     6    27    1
    16     7    12    1
    17     7    28    1
    18     7    29    1
    19     8    15    1
    20     8    30    1
    21     8    31    1
    22     9    10    1
    23     9    11    1
    24     9    32    1
    25     9    33    1
    26    10    13    1
    27    10    34    1
    28    10    35    1
    29    11    14    1
    30    11    36    1
    31    11    37    1
    32    12    16    1
    33    12    38    1
    34    12    39    1
    35    13    17    1
    36    13    40    1
    37    14    18    1
    38    14    41    1
    39    14    42    1
    40    15    21    1
    41    15    43    1
    42    15    44    1
    43    16    19    2
    44    16    45    1
    45    17    20    2
    46    17    46    1
    47    18    47    1
    48    18    48    1
    49    18    49    1
    50    19    20    1
    51    19    50    1
    52    20    51    1
