@<TRIPOS>MOLECULE
IMPHY009227
 52 53 0 0 0
SMALL
GASTEIGER

@<TRIPOS>ATOM
      1 O           3.7320   -4.5950    0.0000 O.3     1  UNL1       -0.3866
      2 O           2.8660   -2.0950    0.0000 O.3     1  UNL1       -0.3886
      3 O           6.3580   -1.1297    0.0000 O.2     1  UNL1       -0.4216
      4 O           2.8660   -1.0950    0.0000 O.3     1  UNL1       -0.4946
      5 O           4.5981    1.9050    0.0000 O.3     1  UNL1       -0.4871
      6 O           8.1282   -1.1192    0.0000 O.2     1  UNL1       -0.2452
      7 C           3.7320   -3.5950    0.0000 C.3     1  UNL1        0.0865
      8 C           3.7320   -2.5950    0.0000 C.3     1  UNL1        0.0875
      9 C           4.5981   -2.0950    0.0000 C.3     1  UNL1        0.0081
     10 C           4.5981   -1.0950    0.0000 C.ar    1  UNL1        0.0399
     11 C           2.7320   -3.5950    0.0000 C.3     1  UNL1       -0.0339
     12 C           4.7320   -3.5950    0.0000 C.3     1  UNL1       -0.0339
     13 C           5.4641   -0.5950    0.0000 C.ar    1  UNL1        0.1493
     14 C           3.7320   -0.5950    0.0000 C.ar    1  UNL1        0.1303
     15 C           5.4641    0.4050    0.0000 C.ar    1  UNL1        0.0597
     16 C           4.5981    0.9050    0.0000 C.ar    1  UNL1        0.1351
     17 C           3.7320    0.4050    0.0000 C.ar    1  UNL1        0.0229
     18 C           6.3580    0.9397    0.0000 C.ar    1  UNL1       -0.0408
     19 C           7.2641    0.4258    0.0000 C.ar    1  UNL1        0.0237
     20 C           7.2641   -0.6158    0.0000 C.ar    1  UNL1        0.3372
     21 C           3.7320    2.4050    0.0000 C.3     1  UNL1        0.1081
     22 C           2.0000   -0.5950    0.0000 C.3     1  UNL1        0.0788
     23 C           3.7320    3.4050    0.0000 C.2     1  UNL1       -0.0484
     24 C           2.8660    3.9050    0.0000 C.2     1  UNL1       -0.0765
     25 C           2.8660    4.9050    0.0000 C.3     1  UNL1       -0.0439
     26 C           2.0000    3.4050    0.0000 C.3     1  UNL1       -0.0439
     27 H           3.7320   -1.9750    0.0000 H       1  UNL1        0.0625
     28 H           4.8101   -2.6776    0.0000 H       1  UNL1        0.0341
     29 H           5.2087   -1.9873    0.0000 H       1  UNL1        0.0341
     30 H           2.7320   -2.9750    0.0000 H       1  UNL1        0.0258
     31 H           2.1120   -3.5950    0.0000 H       1  UNL1        0.0258
     32 H           2.7320   -4.2150    0.0000 H       1  UNL1        0.0258
     33 H           4.7320   -4.2150    0.0000 H       1  UNL1        0.0258
     34 H           5.3520   -3.5950    0.0000 H       1  UNL1        0.0258
     35 H           4.7320   -2.9750    0.0000 H       1  UNL1        0.0258
     36 H           2.3291   -2.4050    0.0000 H       1  UNL1        0.2099
     37 H           3.1951   -4.9050    0.0000 H       1  UNL1        0.2102
     38 H           3.1951    0.7150    0.0000 H       1  UNL1        0.0691
     39 H           6.3509    1.5596    0.0000 H       1  UNL1        0.0628
     40 H           7.7998    0.7379    0.0000 H       1  UNL1        0.0689
     41 H           3.1215    2.5127    0.0000 H       1  UNL1        0.0742
     42 H           3.5200    1.8224    0.0000 H       1  UNL1        0.0742
     43 H           2.3100   -0.0581    0.0000 H       1  UNL1        0.0660
     44 H           1.4631   -0.2850    0.0000 H       1  UNL1        0.0660
     45 H           1.6900   -1.1319    0.0000 H       1  UNL1        0.0660
     46 H           4.2690    3.7150    0.0000 H       1  UNL1        0.0605
     47 H           1.6900    3.9419    0.0000 H       1  UNL1        0.0274
     48 H           3.4860    4.9050    0.0000 H       1  UNL1        0.0274
     49 H           2.8660    5.5250    0.0000 H       1  UNL1        0.0274
     50 H           2.2460    4.9050    0.0000 H       1  UNL1        0.0274
     51 H           1.4631    3.0950    0.0000 H       1  UNL1        0.0274
     52 H           2.3100    2.8681    0.0000 H       1  UNL1        0.0274
@<TRIPOS>BOND
     1     1     7    1
     2     1    37    1
     3     2     8    1
     4     2    36    1
     5     3    13   ar
     6     3    20   ar
     7     4    14    1
     8     4    22    1
     9     5    16    1
    10     5    21    1
    11     6    20    2
    12     7     8    1
    13     7    11    1
    14     7    12    1
    15     8     9    1
    16     8    27    1
    17     9    10    1
    18     9    28    1
    19     9    29    1
    20    10    13   ar
    21    10    14   ar
    22    11    30    1
    23    11    31    1
    24    11    32    1
    25    12    33    1
    26    12    34    1
    27    12    35    1
    28    13    15   ar
    29    14    17   ar
    30    15    16   ar
    31    15    18   ar
    32    16    17   ar
    33    17    38    1
    34    18    19   ar
    35    18    39    1
    36    19    20   ar
    37    19    40    1
    38    21    23    1
    39    21    41    1
    40    21    42    1
    41    22    43    1
    42    22    44    1
    43    22    45    1
    44    23    24    2
    45    23    46    1
    46    24    25    1
    47    24    26    1
    48    25    48    1
    49    25    49    1
    50    25    50    1
    51    26    47    1
    52    26    51    1
    53    26    52    1
