@<TRIPOS>MOLECULE
IMPHY010317
 29 30 0 0 0
SMALL
GASTEIGER

@<TRIPOS>ATOM
      1 O           2.6196   -1.8378    0.0000 O.3     1  UNL1       -0.3886
      2 C           5.7091   -0.0803    0.0000 C.3     1  UNL1       -0.0266
      3 C           4.3101   -0.0891    0.0000 C.3     1  UNL1       -0.0067
      4 C           4.5689    0.8768    0.0000 C.3     1  UNL1       -0.0351
      5 C           3.8323    1.8594    0.0000 C.3     1  UNL1       -0.0438
      6 C           3.0891   -0.9548    0.0000 C.3     1  UNL1        0.0666
      7 C           2.5357    0.5656    0.0000 C.3     1  UNL1       -0.0471
      8 C           2.2601   -0.3956    0.0000 C.3     1  UNL1       -0.0237
      9 C           6.5751    0.4197    0.0000 C.3     1  UNL1       -0.0592
     10 C           6.2091   -0.9464    0.0000 C.3     1  UNL1       -0.0592
     11 C           3.6190   -1.8029    0.0000 C.3     1  UNL1       -0.0358
     12 H           4.0901   -0.9102    0.0000 H       1  UNL1        0.0334
     13 H           4.7889    1.6978    0.0000 H       1  UNL1        0.0306
     14 H           4.1501    2.3918    0.0000 H       1  UNL1        0.0272
     15 H           3.2192    1.9514    0.0000 H       1  UNL1        0.0272
     16 H           2.5306    1.1856    0.0000 H       1  UNL1        0.0269
     17 H           1.9214    0.6494    0.0000 H       1  UNL1        0.0269
     18 H           1.6852   -0.1634    0.0000 H       1  UNL1        0.0293
     19 H           1.9690   -0.9430    0.0000 H       1  UNL1        0.0293
     20 H           6.8851   -0.1173    0.0000 H       1  UNL1        0.0235
     21 H           7.1120    0.7297    0.0000 H       1  UNL1        0.0235
     22 H           6.2651    0.9566    0.0000 H       1  UNL1        0.0235
     23 H           5.6721   -1.2564    0.0000 H       1  UNL1        0.0235
     24 H           6.5191   -1.4833    0.0000 H       1  UNL1        0.0235
     25 H           6.7460   -0.6364    0.0000 H       1  UNL1        0.0235
     26 H           3.0932   -2.1314    0.0000 H       1  UNL1        0.0257
     27 H           3.9476   -2.3286    0.0000 H       1  UNL1        0.0257
     28 H           4.1448   -1.4743    0.0000 H       1  UNL1        0.0257
     29 H           2.0000   -1.8594    0.0000 H       1  UNL1        0.2102
@<TRIPOS>BOND
     1     6     1    1
     2     1    29    1
     3     2     3    1
     4     2     4    1
     5     2     9    1
     6     2    10    1
     7     3     5    1
     8     3     6    1
     9     3    12    1
    10     4     5    1
    11     4     7    1
    12     4    13    1
    13     5    14    1
    14     5    15    1
    15     6     8    1
    16     6    11    1
    17     7     8    1
    18     7    16    1
    19     7    17    1
    20     8    18    1
    21     8    19    1
    22     9    20    1
    23     9    21    1
    24     9    22    1
    25    10    23    1
    26    10    24    1
    27    10    25    1
    28    11    26    1
    29    11    27    1
    30    11    28    1
