@<TRIPOS>MOLECULE
IMPHY011465
 38 40 0 0 0
SMALL
GASTEIGER

@<TRIPOS>ATOM
      1 O           4.8717   -3.2502    0.0000 O.3     1  UNL1       -0.3918
      2 O           2.7493   -0.8493    0.0000 O.3     1  UNL1       -0.5063
      3 O           2.0000    2.6104    0.0000 O.3     1  UNL1       -0.4950
      4 C           4.8717   -0.2502    0.0000 C.3     1  UNL1       -0.0001
      5 C           5.7378   -0.7502    0.0000 C.3     1  UNL1       -0.0409
      6 C           4.0057   -0.7502    0.0000 C.3     1  UNL1       -0.0409
      7 C           5.6808    0.3376    0.0000 C.3     1  UNL1       -0.0392
      8 C           4.0627    0.3376    0.0000 C.ar    1  UNL1        0.0036
      9 C           5.7378   -1.7502    0.0000 C.3     1  UNL1       -0.0261
     10 C           4.0057   -1.7502    0.0000 C.3     1  UNL1       -0.0261
     11 C           5.3717    1.2886    0.0000 C.3     1  UNL1       -0.0264
     12 C           4.8717   -2.2502    0.0000 C.3     1  UNL1        0.0553
     13 C           4.3717    1.2886    0.0000 C.ar    1  UNL1       -0.0367
     14 C           3.0473    0.1053    0.0000 C.ar    1  UNL1        0.1243
     15 C           3.6868    2.0734    0.0000 C.ar    1  UNL1       -0.0163
     16 C           2.3444    0.8740    0.0000 C.ar    1  UNL1        0.0218
     17 C           2.6663    1.8646    0.0000 C.ar    1  UNL1        0.1238
     18 C           2.3127    3.5602    0.0000 C.3     1  UNL1        0.0788
     19 H           6.3484   -0.8579    0.0000 H       1  UNL1        0.0275
     20 H           5.9498   -0.1676    0.0000 H       1  UNL1        0.0275
     21 H           3.7937   -0.1676    0.0000 H       1  UNL1        0.0275
     22 H           3.3951   -0.8579    0.0000 H       1  UNL1        0.0275
     23 H           5.9908   -0.1994    0.0000 H       1  UNL1        0.0277
     24 H           6.2472    0.5897    0.0000 H       1  UNL1        0.0277
     25 H           5.9498   -2.3328    0.0000 H       1  UNL1        0.0290
     26 H           6.3484   -1.6426    0.0000 H       1  UNL1        0.0290
     27 H           3.3951   -1.6426    0.0000 H       1  UNL1        0.0290
     28 H           3.7937   -2.3328    0.0000 H       1  UNL1        0.0290
     29 H           5.9782    1.4175    0.0000 H       1  UNL1        0.0314
     30 H           5.3069    1.9052    0.0000 H       1  UNL1        0.0314
     31 H           4.3348   -2.5602    0.0000 H       1  UNL1        0.0593
     32 H           3.8852    2.6608    0.0000 H       1  UNL1        0.0657
     33 H           1.7384    0.7428    0.0000 H       1  UNL1        0.0691
     34 H           5.4087   -3.5602    0.0000 H       1  UNL1        0.2098
     35 H           2.1444   -0.9852    0.0000 H       1  UNL1        0.2921
     36 H           2.9016    3.3664    0.0000 H       1  UNL1        0.0660
     37 H           2.5065    4.1491    0.0000 H       1  UNL1        0.0660
     38 H           1.7238    3.7541    0.0000 H       1  UNL1        0.0660
@<TRIPOS>BOND
     1     1    12    1
     2     1    34    1
     3     2    14    1
     4     2    35    1
     5     3    17    1
     6     3    18    1
     7     4     5    1
     8     4     6    1
     9     4     7    1
    10     4     8    1
    11     5     9    1
    12     5    19    1
    13     5    20    1
    14     6    10    1
    15     6    21    1
    16     6    22    1
    17     7    11    1
    18     7    23    1
    19     7    24    1
    20     8    13   ar
    21     8    14   ar
    22     9    12    1
    23     9    25    1
    24     9    26    1
    25    10    12    1
    26    10    27    1
    27    10    28    1
    28    11    13    1
    29    11    29    1
    30    11    30    1
    31    12    31    1
    32    13    15   ar
    33    14    16   ar
    34    15    17   ar
    35    15    32    1
    36    16    17   ar
    37    16    33    1
    38    18    36    1
    39    18    37    1
    40    18    38    1
