@<TRIPOS>MOLECULE
IMPHY017120
 30 29 0 0 0
SMALL
GASTEIGER

@<TRIPOS>ATOM
      1 O           7.1962   -0.5950    0.0000 O.3     1  UNL1       -0.3912
      2 O           4.5981    0.9050    0.0000 O.3     1  UNL1       -0.4646
      3 O           5.4641   -0.5950    0.0000 O.2     1  UNL1       -0.2508
      4 C           7.1962    0.4050    0.0000 C.3     1  UNL1        0.0653
      5 C           8.0622    0.9050    0.0000 C.3     1  UNL1       -0.0266
      6 C           6.3301    0.9050    0.0000 C.3     1  UNL1        0.0709
      7 C           8.9282    0.4050    0.0000 C.3     1  UNL1       -0.0536
      8 C           5.4641    0.4050    0.0000 C.2     1  UNL1        0.3096
      9 C           9.7942    0.9050    0.0000 C.3     1  UNL1       -0.0652
     10 C           3.7320    0.4050    0.0000 C.3     1  UNL1        0.0922
     11 C           2.8660    0.9050    0.0000 C.3     1  UNL1       -0.0214
     12 C           2.0000    0.4050    0.0000 C.3     1  UNL1       -0.0622
     13 H           6.6592    0.0950    0.0000 H       1  UNL1        0.0598
     14 H           8.4607    1.3800    0.0000 H       1  UNL1        0.0290
     15 H           7.6636    1.3800    0.0000 H       1  UNL1        0.0290
     16 H           6.7287    1.3800    0.0000 H       1  UNL1        0.0403
     17 H           5.9316    1.3800    0.0000 H       1  UNL1        0.0403
     18 H           8.5297   -0.0699    0.0000 H       1  UNL1        0.0263
     19 H           9.3267   -0.0699    0.0000 H       1  UNL1        0.0263
     20 H          10.1042    0.3681    0.0000 H       1  UNL1        0.0230
     21 H          10.3312    1.2150    0.0000 H       1  UNL1        0.0230
     22 H           9.4842    1.4419    0.0000 H       1  UNL1        0.0230
     23 H           3.3335   -0.0699    0.0000 H       1  UNL1        0.0697
     24 H           4.1306   -0.0699    0.0000 H       1  UNL1        0.0697
     25 H           7.7331   -0.9050    0.0000 H       1  UNL1        0.2098
     26 H           3.2646    1.3800    0.0000 H       1  UNL1        0.0295
     27 H           2.4675    1.3800    0.0000 H       1  UNL1        0.0295
     28 H           1.6900    0.9419    0.0000 H       1  UNL1        0.0231
     29 H           1.4631    0.0950    0.0000 H       1  UNL1        0.0231
     30 H           2.3100   -0.1319    0.0000 H       1  UNL1        0.0231
@<TRIPOS>BOND
     1     1     4    1
     2     1    25    1
     3     2     8    1
     4     2    10    1
     5     3     8    2
     6     4     5    1
     7     4     6    1
     8     4    13    1
     9     5     7    1
    10     5    14    1
    11     5    15    1
    12     6     8    1
    13     6    16    1
    14     6    17    1
    15     7     9    1
    16     7    18    1
    17     7    19    1
    18     9    20    1
    19     9    21    1
    20     9    22    1
    21    10    11    1
    22    10    23    1
    23    10    24    1
    24    11    12    1
    25    11    26    1
    26    11    27    1
    27    12    28    1
    28    12    29    1
    29    12    30    1
