@<TRIPOS>MOLECULE
IMPHY007199
 24 26 0 0 0
SMALL
GASTEIGER

@<TRIPOS>ATOM
      1 O           6.4783   -1.5374    0.0000 O.2     1  UNL1       -0.4449
      2 O           4.6660    1.2673    0.0000 O.3     1  UNL1       -0.4937
      3 N           4.6660   -1.7327    0.0000 N.ar    1  UNL1       -0.2119
      4 C           3.8000   -0.2327    0.0000 C.ar    1  UNL1        0.0429
      5 C           5.5321   -0.2327    0.0000 C.ar    1  UNL1        0.0820
      6 C           4.6660    0.2673    0.0000 C.ar    1  UNL1        0.1415
      7 C           3.8000   -1.2327    0.0000 C.ar    1  UNL1        0.0783
      8 C           5.5321   -1.2327    0.0000 C.ar    1  UNL1        0.2311
      9 C           2.9061    0.3020    0.0000 C.ar    1  UNL1       -0.0490
     10 C           6.4783    0.0721    0.0000 C.ar    1  UNL1       -0.0109
     11 C           2.9061   -1.7673    0.0000 C.ar    1  UNL1       -0.0355
     12 C           2.0000   -0.2119    0.0000 C.ar    1  UNL1       -0.0610
     13 C           7.0619   -0.7327    0.0000 C.ar    1  UNL1        0.0952
     14 C           2.0000   -1.2535    0.0000 C.ar    1  UNL1       -0.0597
     15 C           3.8000    1.7673    0.0000 C.3     1  UNL1        0.0788
     16 H           2.9132    0.9220    0.0000 H       1  UNL1        0.0625
     17 H           6.6709    0.6614    0.0000 H       1  UNL1        0.0657
     18 H           2.9132   -2.3873    0.0000 H       1  UNL1        0.0639
     19 H           1.4643    0.1002    0.0000 H       1  UNL1        0.0618
     20 H           7.6819   -0.7327    0.0000 H       1  UNL1        0.1030
     21 H           1.4643   -1.5656    0.0000 H       1  UNL1        0.0618
     22 H           4.1100    2.3043    0.0000 H       1  UNL1        0.0660
     23 H           3.2631    2.0773    0.0000 H       1  UNL1        0.0660
     24 H           3.4900    1.2304    0.0000 H       1  UNL1        0.0660
@<TRIPOS>BOND
     1     1     8   ar
     2     1    13   ar
     3     2     6    1
     4     2    15    1
     5     3     7   ar
     6     3     8   ar
     7     4     6   ar
     8     4     7   ar
     9     4     9   ar
    10     5     6   ar
    11     5     8   ar
    12     5    10   ar
    13     7    11   ar
    14     9    12   ar
    15     9    16    1
    16    10    13   ar
    17    10    17    1
    18    11    14   ar
    19    11    18    1
    20    12    14   ar
    21    12    19    1
    22    13    20    1
    23    14    21    1
    24    15    22    1
    25    15    23    1
    26    15    24    1
