@<TRIPOS>MOLECULE
IMPHY001885
 59 62 0 0 0
SMALL
GASTEIGER

@<TRIPOS>ATOM
      1 O           7.7517    1.9043    0.0000 O.3     1  UNL1       -0.4556
      2 O           2.6200   -2.6102    0.0000 O.3     1  UNL1       -0.3886
      3 O           7.9825   -0.2560    0.0000 O.3     1  UNL1       -0.3911
      4 O           8.9734    0.6765    0.0000 O.2     1  UNL1       -0.2511
      5 C           5.8238   -0.1281    0.0000 C.3     1  UNL1       -0.0218
      6 C           4.9553    0.3676    0.0000 C.3     1  UNL1       -0.0295
      7 C           4.0478   -0.1438    0.0000 C.3     1  UNL1       -0.0233
      8 C           6.4754    2.0223    0.0000 C.3     1  UNL1        0.0017
      9 C           5.7993    1.0533    0.0000 C.3     1  UNL1       -0.0404
     10 C           4.0450   -1.1854    0.0000 C.3     1  UNL1       -0.0067
     11 C           6.7528    0.2419    0.0000 C.3     1  UNL1       -0.0044
     12 C           7.0428    1.1989    0.0000 C.3     1  UNL1        0.1396
     13 C           5.8450   -1.1695    0.0000 C.3     1  UNL1       -0.0466
     14 C           4.8013    1.3557    0.0000 C.3     1  UNL1       -0.0488
     15 C           4.9496   -1.7017    0.0000 C.3     1  UNL1       -0.0466
     16 C           5.4778    2.0921    0.0000 C.3     1  UNL1       -0.0462
     17 C           3.1182    0.4157    0.0000 C.3     1  UNL1       -0.0469
     18 C           3.1123   -1.7398    0.0000 C.3     1  UNL1        0.0666
     19 C           3.7083    0.7968    0.0000 C.3     1  UNL1       -0.0589
     20 C           2.1729   -0.1170    0.0000 C.3     1  UNL1       -0.0499
     21 C           2.1700   -1.2020    0.0000 C.3     1  UNL1       -0.0240
     22 C           7.9327    0.7427    0.0000 C.3     1  UNL1        0.0843
     23 C           3.6199   -2.6014    0.0000 C.3     1  UNL1       -0.0358
     24 C           8.7170    1.6430    0.0000 C.2     1  UNL1        0.3045
     25 C           9.4258    2.3484    0.0000 C.3     1  UNL1        0.0333
     26 H           4.2170    0.7889    0.0000 H       1  UNL1        0.0311
     27 H           6.7219    2.8358    0.0000 H       1  UNL1        0.0340
     28 H           5.4250    1.5476    0.0000 H       1  UNL1        0.0275
     29 H           5.2136    0.8498    0.0000 H       1  UNL1        0.0275
     30 H           4.0525   -2.0354    0.0000 H       1  UNL1        0.0334
     31 H           6.8483   -0.3707    0.0000 H       1  UNL1        0.0310
     32 H           7.3713    0.1986    0.0000 H       1  UNL1        0.0310
     33 H           6.0660   -1.7488    0.0000 H       1  UNL1        0.0271
     34 H           6.4536   -1.0510    0.0000 H       1  UNL1        0.0271
     35 H           4.4495    1.8662    0.0000 H       1  UNL1        0.0268
     36 H           4.2253    1.1263    0.0000 H       1  UNL1        0.0268
     37 H           4.5547   -2.1797    0.0000 H       1  UNL1        0.0269
     38 H           5.3530   -2.1726    0.0000 H       1  UNL1        0.0269
     39 H           5.6576    2.6854    0.0000 H       1  UNL1        0.0269
     40 H           4.9393    2.3994    0.0000 H       1  UNL1        0.0269
     41 H           3.5240    0.8843    0.0000 H       1  UNL1        0.0271
     42 H           2.7258    0.8957    0.0000 H       1  UNL1        0.0271
     43 H           4.2915    1.0073    0.0000 H       1  UNL1        0.0235
     44 H           3.4979    1.3800    0.0000 H       1  UNL1        0.0235
     45 H           3.1252    0.5864    0.0000 H       1  UNL1        0.0235
     46 H           1.9655    0.4673    0.0000 H       1  UNL1        0.0266
     47 H           1.5618   -0.2214    0.0000 H       1  UNL1        0.0266
     48 H           1.5594   -1.0942    0.0000 H       1  UNL1        0.0293
     49 H           1.9593   -1.7851    0.0000 H       1  UNL1        0.0293
     50 H           8.5479    0.6656    0.0000 H       1  UNL1        0.0597
     51 H           8.1154    1.3352    0.0000 H       1  UNL1        0.0597
     52 H           3.0858   -2.9161    0.0000 H       1  UNL1        0.0257
     53 H           3.9347   -3.1356    0.0000 H       1  UNL1        0.0257
     54 H           4.1541   -2.2866    0.0000 H       1  UNL1        0.0257
     55 H           2.0000   -2.6157    0.0000 H       1  UNL1        0.2102
     56 H           8.5342   -0.5389    0.0000 H       1  UNL1        0.2096
     57 H           9.8631    1.9089    0.0000 H       1  UNL1        0.0342
     58 H           9.8653    2.7857    0.0000 H       1  UNL1        0.0342
     59 H           8.9885    2.7879    0.0000 H       1  UNL1        0.0342
@<TRIPOS>BOND
     1    12     1    1
     2     1    24    1
     3    18     2    1
     4     2    55    1
     5     3    22    1
     6     3    56    1
     7     4    24    2
     8     5     6    1
     9     5     9    1
    10     5    11    1
    11     5    13    1
    12     6     7    1
    13     6    14    1
    14     6    26    1
    15     7    10    1
    16     7    17    1
    17     7    19    1
    18     8     9    1
    19     8    12    1
    20     8    16    1
    21     8    27    1
    22     9    28    1
    23     9    29    1
    24    10    15    1
    25    10    18    1
    26    10    30    1
    27    11    12    1
    28    11    31    1
    29    11    32    1
    30    12    22    1
    31    13    15    1
    32    13    33    1
    33    13    34    1
    34    14    16    1
    35    14    35    1
    36    14    36    1
    37    15    37    1
    38    15    38    1
    39    16    39    1
    40    16    40    1
    41    17    20    1
    42    17    41    1
    43    17    42    1
    44    18    21    1
    45    18    23    1
    46    19    43    1
    47    19    44    1
    48    19    45    1
    49    20    21    1
    50    20    46    1
    51    20    47    1
    52    21    48    1
    53    21    49    1
    54    22    50    1
    55    22    51    1
    56    23    52    1
    57    23    53    1
    58    23    54    1
    59    24    25    1
    60    25    57    1
    61    25    58    1
    62    25    59    1
