@<TRIPOS>MOLECULE
IMPHY001821
 40 41 0 0 0
SMALL
GASTEIGER

@<TRIPOS>ATOM
      1 O           6.0010   -0.5000    0.0000 O.3     1  UNL1       -0.4942
      2 O           4.2690   -3.5000    0.0000 O.3     1  UNL1       -0.4946
      3 O           2.5369   -0.5000    0.0000 O.3     1  UNL1       -0.5055
      4 O           3.4030    1.0000    0.0000 O.2     1  UNL1       -0.2870
      5 C           3.4030   -2.0000    0.0000 C.ar    1  UNL1        0.0335
      6 C           4.2690   -0.5000    0.0000 C.ar    1  UNL1        0.1050
      7 C           3.4030   -1.0000    0.0000 C.ar    1  UNL1        0.1375
      8 C           4.2690   -2.5000    0.0000 C.ar    1  UNL1        0.1300
      9 C           5.1350   -1.0000    0.0000 C.ar    1  UNL1        0.1379
     10 C           5.1350   -2.0000    0.0000 C.ar    1  UNL1        0.0230
     11 C           2.5369   -2.5000    0.0000 C.3     1  UNL1       -0.0327
     12 C           4.2690    0.5000    0.0000 C.2     1  UNL1        0.1931
     13 C           5.1350    1.0000    0.0000 C.2     1  UNL1       -0.0135
     14 C           5.1350    2.0000    0.0000 C.2     1  UNL1       -0.0510
     15 C           6.0010    2.5000    0.0000 C.ar    1  UNL1       -0.0249
     16 C           6.8671   -1.0000    0.0000 C.3     1  UNL1        0.0788
     17 C           5.1350   -4.0000    0.0000 C.3     1  UNL1        0.0788
     18 C           6.8671    2.0000    0.0000 C.ar    1  UNL1       -0.0546
     19 C           6.0010    3.5000    0.0000 C.ar    1  UNL1       -0.0546
     20 C           7.7331    2.5000    0.0000 C.ar    1  UNL1       -0.0612
     21 C           6.8671    4.0000    0.0000 C.ar    1  UNL1       -0.0612
     22 C           7.7331    3.5000    0.0000 C.ar    1  UNL1       -0.0617
     23 H           5.6720   -2.3100    0.0000 H       1  UNL1        0.0691
     24 H           2.2269   -1.9631    0.0000 H       1  UNL1        0.0280
     25 H           2.0000   -2.8100    0.0000 H       1  UNL1        0.0280
     26 H           2.8469   -3.0369    0.0000 H       1  UNL1        0.0280
     27 H           5.6720    0.6900    0.0000 H       1  UNL1        0.0656
     28 H           4.5981    2.3100    0.0000 H       1  UNL1        0.0625
     29 H           2.0000   -0.8100    0.0000 H       1  UNL1        0.2922
     30 H           6.5571   -1.5369    0.0000 H       1  UNL1        0.0660
     31 H           7.4040   -1.3100    0.0000 H       1  UNL1        0.0660
     32 H           7.1771   -0.4631    0.0000 H       1  UNL1        0.0660
     33 H           4.8250   -4.5369    0.0000 H       1  UNL1        0.0660
     34 H           5.6720   -4.3100    0.0000 H       1  UNL1        0.0660
     35 H           5.4450   -3.4631    0.0000 H       1  UNL1        0.0660
     36 H           6.8671    1.3800    0.0000 H       1  UNL1        0.0623
     37 H           5.4641    3.8100    0.0000 H       1  UNL1        0.0623
     38 H           8.2700    2.1900    0.0000 H       1  UNL1        0.0618
     39 H           6.8671    4.6200    0.0000 H       1  UNL1        0.0618
     40 H           8.2700    3.8100    0.0000 H       1  UNL1        0.0618
@<TRIPOS>BOND
     1     1     9    1
     2     1    16    1
     3     2     8    1
     4     2    17    1
     5     3     7    1
     6     3    29    1
     7     4    12    2
     8     5     7   ar
     9     5     8   ar
    10     5    11    1
    11     6     7   ar
    12     6     9   ar
    13     6    12    1
    14     8    10   ar
    15     9    10   ar
    16    10    23    1
    17    11    24    1
    18    11    25    1
    19    11    26    1
    20    12    13    1
    21    13    14    2
    22    13    27    1
    23    14    15    1
    24    14    28    1
    25    15    18   ar
    26    15    19   ar
    27    16    30    1
    28    16    31    1
    29    16    32    1
    30    17    33    1
    31    17    34    1
    32    17    35    1
    33    18    20   ar
    34    18    36    1
    35    19    21   ar
    36    19    37    1
    37    20    22   ar
    38    20    38    1
    39    21    22   ar
    40    21    39    1
    41    22    40    1
