@<TRIPOS>MOLECULE
IMPHY001627
 57 61 0 0 0
SMALL
GASTEIGER

@<TRIPOS>ATOM
      1 O           6.3821    0.7710    0.0000 O.2     1  UNL1       -0.4534
      2 O           8.2356    3.8692    0.0000 O.3     1  UNL1       -0.4814
      3 O           3.7578   -2.8799    0.0000 O.3     1  UNL1       -0.5031
      4 O           3.7840    2.2710    0.0000 O.2     1  UNL1       -0.2866
      5 O           7.3403   -0.7746    0.0000 O.3     1  UNL1       -0.5059
      6 O           5.5692   -3.9257    0.0000 O.3     1  UNL1       -0.4913
      7 O           4.6283    3.8024    0.0000 O.3     1  UNL1       -0.5058
      8 C           3.7320   -0.7775    0.0000 C.3     1  UNL1        0.0132
      9 C           3.7401    0.2641    0.0000 C.3     1  UNL1       -0.0098
     10 C           4.6341   -1.2983    0.0000 C.ar    1  UNL1        0.0192
     11 C           4.6501    0.7710    0.0000 C.ar    1  UNL1        0.0439
     12 C           5.5322   -0.7705    0.0000 C.ar    1  UNL1        0.0665
     13 C           5.5161    0.2710    0.0000 C.ar    1  UNL1        0.1463
     14 C           2.8641   -1.2741    0.0000 C.2     1  UNL1       -0.0719
     15 C           4.6501    1.7710    0.0000 C.ar    1  UNL1        0.1998
     16 C           6.3821    1.7710    0.0000 C.ar    1  UNL1        0.1534
     17 C           5.5161    2.2710    0.0000 C.ar    1  UNL1        0.1063
     18 C           4.6258   -2.3832    0.0000 C.ar    1  UNL1        0.1632
     19 C           7.2921    2.2778    0.0000 C.ar    1  UNL1        0.0597
     20 C           6.4841   -1.2912    0.0000 C.ar    1  UNL1        0.1315
     21 C           9.1752    3.3266    0.0000 C.3     1  UNL1        0.1235
     22 C           7.3002    3.3194    0.0000 C.ar    1  UNL1        0.1359
     23 C           5.5000    3.3125    0.0000 C.ar    1  UNL1        0.1347
     24 C           5.5654   -2.9257    0.0000 C.ar    1  UNL1        0.1651
     25 C           6.5008   -2.3760    0.0000 C.ar    1  UNL1        0.0259
     26 C           2.0000   -0.7708    0.0000 C.3     1  UNL1       -0.0435
     27 C           8.2190    1.7137    0.0000 C.2     1  UNL1       -0.0478
     28 C           6.3981    3.8402    0.0000 C.ar    1  UNL1        0.0231
     29 C           9.1668    2.2417    0.0000 C.2     1  UNL1       -0.0408
     30 C           2.8602   -2.2741    0.0000 C.2     1  UNL1       -0.0991
     31 C          10.1752    3.3228    0.0000 C.3     1  UNL1       -0.0215
     32 C           9.6785    4.1907    0.0000 C.3     1  UNL1       -0.0215
     33 C           6.4372   -4.4224    0.0000 C.3     1  UNL1        0.0790
     34 H           3.7308   -1.3975    0.0000 H       1  UNL1        0.0398
     35 H           3.5355    0.8494    0.0000 H       1  UNL1        0.0324
     36 H           3.1284    0.1628    0.0000 H       1  UNL1        0.0324
     37 H           7.0413   -2.6798    0.0000 H       1  UNL1        0.0692
     38 H           8.2070    1.0939    0.0000 H       1  UNL1        0.0624
     39 H           2.3121   -0.2351    0.0000 H       1  UNL1        0.0274
     40 H           1.4643   -0.4587    0.0000 H       1  UNL1        0.0274
     41 H           1.6879   -1.3065    0.0000 H       1  UNL1        0.0274
     42 H           6.3957    4.4602    0.0000 H       1  UNL1        0.0691
     43 H           9.7002    1.9255    0.0000 H       1  UNL1        0.0611
     44 H           2.3221   -2.5820    0.0000 H       1  UNL1        0.0534
     45 H           3.3960   -2.5862    0.0000 H       1  UNL1        0.0534
     46 H          10.1728    2.7028    0.0000 H       1  UNL1        0.0271
     47 H          10.7952    3.3204    0.0000 H       1  UNL1        0.0271
     48 H          10.1776    3.9428    0.0000 H       1  UNL1        0.0271
     49 H          10.2143    3.8787    0.0000 H       1  UNL1        0.0271
     50 H           9.9906    4.7265    0.0000 H       1  UNL1        0.0271
     51 H           9.1428    4.5028    0.0000 H       1  UNL1        0.0271
     52 H           3.7554   -3.4999    0.0000 H       1  UNL1        0.2923
     53 H           7.8831   -1.0742    0.0000 H       1  UNL1        0.2922
     54 H           4.6211    4.4224    0.0000 H       1  UNL1        0.2922
     55 H           6.1293   -4.9605    0.0000 H       1  UNL1        0.0660
     56 H           6.9753   -4.7303    0.0000 H       1  UNL1        0.0660
     57 H           6.7451   -3.8843    0.0000 H       1  UNL1        0.0660
@<TRIPOS>BOND
     1     1    13   ar
     2     1    16   ar
     3     2    21    1
     4     2    22    1
     5     3    18    1
     6     3    52    1
     7     4    15    2
     8     5    20    1
     9     5    53    1
    10     6    24    1
    11     6    33    1
    12     7    23    1
    13     7    54    1
    14     8     9    1
    15     8    10    1
    16     8    14    1
    17     8    34    1
    18     9    11    1
    19     9    35    1
    20     9    36    1
    21    10    12   ar
    22    10    18   ar
    23    11    13   ar
    24    11    15   ar
    25    12    13    1
    26    12    20   ar
    27    14    26    1
    28    14    30    2
    29    15    17   ar
    30    16    17   ar
    31    16    19   ar
    32    17    23   ar
    33    18    24   ar
    34    19    22   ar
    35    19    27    1
    36    20    25   ar
    37    21    29    1
    38    21    31    1
    39    21    32    1
    40    22    28   ar
    41    23    28   ar
    42    24    25   ar
    43    25    37    1
    44    26    39    1
    45    26    40    1
    46    26    41    1
    47    27    29    2
    48    27    38    1
    49    28    42    1
    50    29    43    1
    51    30    44    1
    52    30    45    1
    53    31    46    1
    54    31    47    1
    55    31    48    1
    56    32    49    1
    57    32    50    1
    58    32    51    1
    59    33    55    1
    60    33    56    1
    61    33    57    1
