@<TRIPOS>MOLECULE
IMPHY004299
 71 74 0 0 0
SMALL
GASTEIGER

@<TRIPOS>ATOM
      1 O           6.7303    2.0015    0.0000 O.3     1  UNL1       -0.3846
      2 O           4.7166    1.4020    0.0000 O.3     1  UNL1       -0.4504
      3 O           8.6500   -3.5970    0.0000 O.3     1  UNL1       -0.4525
      4 O           5.4506   -3.2330    0.0000 O.3     1  UNL1       -0.4907
      5 O           7.1011   -4.2385    0.0000 O.3     1  UNL1       -0.4489
      6 O           4.8576   -2.9874    0.0000 O.3     1  UNL1       -0.4907
      7 O           2.3791   -0.7642    0.0000 O.3     1  UNL1       -0.4913
      8 O           3.1630   -2.6566    0.0000 O.3     1  UNL1       -0.4885
      9 O           5.9413    2.6268    0.0000 O.2     1  UNL1       -0.2453
     10 C           6.3476    1.0776    0.0000 C.3     1  UNL1        0.1070
     11 C           7.2714    0.6949    0.0000 C.3     1  UNL1       -0.0074
     12 C           5.4237    0.6949    0.0000 C.3     1  UNL1        0.1576
     13 C           7.6541   -0.2290    0.0000 C.3     1  UNL1       -0.0216
     14 C           5.0410   -0.2290    0.0000 C.ar    1  UNL1        0.0105
     15 C           7.2714   -1.1528    0.0000 C.ar    1  UNL1       -0.0320
     16 C           5.9649    2.0015    0.0000 C.3     1  UNL1       -0.0320
     17 C           7.9786    1.4020    0.0000 C.3     1  UNL1       -0.0594
     18 C           5.4237   -1.1528    0.0000 C.ar    1  UNL1        0.0383
     19 C           6.3476   -1.5355    0.0000 C.ar    1  UNL1        0.0348
     20 C           4.0105   -0.0771    0.0000 C.ar    1  UNL1       -0.0087
     21 C           8.1075   -1.7741    0.0000 C.ar    1  UNL1       -0.0121
     22 C           6.1957   -2.5660    0.0000 C.ar    1  UNL1        0.1734
     23 C           4.8024   -1.9889    0.0000 C.ar    1  UNL1        0.1733
     24 C           7.9795   -2.8079    0.0000 C.ar    1  UNL1        0.1702
     25 C           7.0172   -3.2065    0.0000 C.ar    1  UNL1        0.2081
     26 C           3.3700   -0.8986    0.0000 C.ar    1  UNL1        0.1656
     27 C           3.7687   -1.8609    0.0000 C.ar    1  UNL1        0.2041
     28 C           4.9754    2.3680    0.0000 C.2     1  UNL1        0.3352
     29 C           8.1082   -4.4794    0.0000 C.3     1  UNL1        0.2334
     30 C           4.2683    3.0751    0.0000 C.2     1  UNL1        0.0294
     31 C           5.6558   -4.2118    0.0000 C.3     1  UNL1        0.0790
     32 C           4.0205   -3.5344    0.0000 C.3     1  UNL1        0.0790
     33 C           2.0000    0.1611    0.0000 C.3     1  UNL1        0.0790
     34 C           2.1710   -2.5299    0.0000 C.3     1  UNL1        0.0791
     35 C           3.3024    2.8162    0.0000 C.3     1  UNL1       -0.0333
     36 C           4.5271    4.0410    0.0000 C.2     1  UNL1       -0.0774
     37 C           5.4930    4.2998    0.0000 C.3     1  UNL1       -0.0461
     38 H           7.8795    0.5740    0.0000 H       1  UNL1        0.0330
     39 H           4.8156    0.5740    0.0000 H       1  UNL1        0.0815
     40 H           8.1460   -0.6064    0.0000 H       1  UNL1        0.0317
     41 H           8.1460    0.1485    0.0000 H       1  UNL1        0.0317
     42 H           6.5377    2.2388    0.0000 H       1  UNL1        0.0259
     43 H           5.7276    2.5743    0.0000 H       1  UNL1        0.0259
     44 H           5.3921    1.7642    0.0000 H       1  UNL1        0.0259
     45 H           8.4170    0.9636    0.0000 H       1  UNL1        0.0233
     46 H           8.4170    1.8404    0.0000 H       1  UNL1        0.0233
     47 H           7.5402    1.8404    0.0000 H       1  UNL1        0.0233
     48 H           7.3450    2.0824    0.0000 H       1  UNL1        0.2103
     49 H           3.7799    0.4984    0.0000 H       1  UNL1        0.0659
     50 H           8.6775   -1.5303    0.0000 H       1  UNL1        0.0658
     51 H           7.9014   -5.0639    0.0000 H       1  UNL1        0.1166
     52 H           8.6677   -4.7465    0.0000 H       1  UNL1        0.1166
     53 H           5.0490   -4.3390    0.0000 H       1  UNL1        0.0660
     54 H           5.7830   -4.8186    0.0000 H       1  UNL1        0.0660
     55 H           6.2626   -4.0846    0.0000 H       1  UNL1        0.0660
     56 H           3.6813   -3.0154    0.0000 H       1  UNL1        0.0660
     57 H           3.5015   -3.8736    0.0000 H       1  UNL1        0.0660
     58 H           4.3597   -4.0534    0.0000 H       1  UNL1        0.0660
     59 H           2.5737    0.3962    0.0000 H       1  UNL1        0.0660
     60 H           1.7650    0.7348    0.0000 H       1  UNL1        0.0660
     61 H           1.4263   -0.0739    0.0000 H       1  UNL1        0.0660
     62 H           2.2496   -1.9149    0.0000 H       1  UNL1        0.0660
     63 H           1.5560   -2.4513    0.0000 H       1  UNL1        0.0660
     64 H           2.0925   -3.1449    0.0000 H       1  UNL1        0.0660
     65 H           3.1419    3.4151    0.0000 H       1  UNL1        0.0280
     66 H           2.7035    2.6558    0.0000 H       1  UNL1        0.0280
     67 H           3.4628    2.2174    0.0000 H       1  UNL1        0.0280
     68 H           4.0887    4.4794    0.0000 H       1  UNL1        0.0574
     69 H           5.6535    3.7009    0.0000 H       1  UNL1        0.0272
     70 H           6.0919    4.4603    0.0000 H       1  UNL1        0.0272
     71 H           5.3326    4.8987    0.0000 H       1  UNL1        0.0272
@<TRIPOS>BOND
     1    10     1    1
     2     1    48    1
     3    12     2    1
     4     2    28    1
     5     3    24    1
     6     3    29    1
     7     4    22    1
     8     4    31    1
     9     5    25    1
    10     5    29    1
    11     6    23    1
    12     6    32    1
    13     7    26    1
    14     7    33    1
    15     8    27    1
    16     8    34    1
    17     9    28    2
    18    10    11    1
    19    10    12    1
    20    10    16    1
    21    11    13    1
    22    11    17    1
    23    11    38    1
    24    12    14    1
    25    12    39    1
    26    13    15    1
    27    13    40    1
    28    13    41    1
    29    14    18   ar
    30    14    20   ar
    31    15    19   ar
    32    15    21   ar
    33    16    42    1
    34    16    43    1
    35    16    44    1
    36    17    45    1
    37    17    46    1
    38    17    47    1
    39    18    19    1
    40    18    23   ar
    41    19    22   ar
    42    20    26   ar
    43    20    49    1
    44    21    24   ar
    45    21    50    1
    46    22    25   ar
    47    23    27   ar
    48    24    25   ar
    49    26    27   ar
    50    28    30    1
    51    29    51    1
    52    29    52    1
    53    30    35    1
    54    30    36    2
    55    31    53    1
    56    31    54    1
    57    31    55    1
    58    32    56    1
    59    32    57    1
    60    32    58    1
    61    33    59    1
    62    33    60    1
    63    33    61    1
    64    34    62    1
    65    34    63    1
    66    34    64    1
    67    35    65    1
    68    35    66    1
    69    35    67    1
    70    36    37    1
    71    36    68    1
    72    37    69    1
    73    37    70    1
    74    37    71    1
