@<TRIPOS>MOLECULE
IMPHY006537
 25 24 0 0 0
SMALL
GASTEIGER

@<TRIPOS>ATOM
      1 O           4.5981   -0.7500    0.0000 O.2     1  UNL1       -0.2923
      2 C           5.4641    0.7500    0.0000 C.3     1  UNL1        0.0345
      3 C           2.8660    0.2500    0.0000 C.2     1  UNL1       -0.0724
      4 C           4.5981    0.2500    0.0000 C.2     1  UNL1        0.1603
      5 C           3.7320    0.7500    0.0000 C.2     1  UNL1       -0.0202
      6 C           6.3301    0.2500    0.0000 C.2     1  UNL1       -0.0476
      7 C           2.0000    0.7500    0.0000 C.3     1  UNL1       -0.0437
      8 C           2.8660   -0.7500    0.0000 C.3     1  UNL1       -0.0437
      9 C           7.1962    0.7500    0.0000 C.2     1  UNL1       -0.0658
     10 C           6.3301   -0.7500    0.0000 C.2     1  UNL1       -0.0951
     11 C           8.0622    0.2500    0.0000 C.2     1  UNL1       -0.0984
     12 H           5.8626    1.2250    0.0000 H       1  UNL1        0.0393
     13 H           5.0656    1.2250    0.0000 H       1  UNL1        0.0393
     14 H           3.7320    1.3700    0.0000 H       1  UNL1        0.0652
     15 H           2.3100    1.2869    0.0000 H       1  UNL1        0.0274
     16 H           1.4631    1.0600    0.0000 H       1  UNL1        0.0274
     17 H           1.6900    0.2131    0.0000 H       1  UNL1        0.0274
     18 H           2.2460   -0.7500    0.0000 H       1  UNL1        0.0274
     19 H           2.8660   -1.3700    0.0000 H       1  UNL1        0.0274
     20 H           3.4860   -0.7500    0.0000 H       1  UNL1        0.0274
     21 H           7.1962    1.3700    0.0000 H       1  UNL1        0.0614
     22 H           5.7932   -1.0600    0.0000 H       1  UNL1        0.0538
     23 H           6.8671   -1.0600    0.0000 H       1  UNL1        0.0538
     24 H           8.0622   -0.3700    0.0000 H       1  UNL1        0.0535
     25 H           8.5991    0.5600    0.0000 H       1  UNL1        0.0535
@<TRIPOS>BOND
     1     1     4    2
     2     2     4    1
     3     2     6    1
     4     2    12    1
     5     2    13    1
     6     3     5    2
     7     3     7    1
     8     3     8    1
     9     4     5    1
    10     5    14    1
    11     6     9    1
    12     6    10    2
    13     7    15    1
    14     7    16    1
    15     7    17    1
    16     8    18    1
    17     8    19    1
    18     8    20    1
    19     9    11    2
    20     9    21    1
    21    10    22    1
    22    10    23    1
    23    11    24    1
    24    11    25    1
