@<TRIPOS>MOLECULE
IMPHY017285
 23 23 0 0 0
SMALL
GASTEIGER

@<TRIPOS>ATOM
      1 O           3.7320    2.0000    0.0000 O.2     1  UNL1       -0.4996
      2 C           2.8660   -0.5000    0.0000 C.ar    1  UNL1       -0.0219
      3 C           2.8660    0.5000    0.0000 C.2     1  UNL1       -0.0173
      4 C           3.7320    1.0000    0.0000 C.2     1  UNL1        0.0948
      5 C           2.0000   -1.0000    0.0000 C.ar    1  UNL1       -0.0545
      6 C           3.7320   -1.0000    0.0000 C.ar    1  UNL1       -0.0545
      7 C           2.0000   -2.0000    0.0000 C.ar    1  UNL1       -0.0612
      8 C           3.7320   -2.0000    0.0000 C.ar    1  UNL1       -0.0612
      9 C           4.5981    0.5000    0.0000 C.3     1  UNL1       -0.0069
     10 C           2.8660   -2.5000    0.0000 C.ar    1  UNL1       -0.0617
     11 C           4.5981    2.5000    0.0000 C.3     1  UNL1        0.0783
     12 H           2.3291    0.8100    0.0000 H       1  UNL1        0.0656
     13 H           1.4631   -0.6900    0.0000 H       1  UNL1        0.0623
     14 H           4.2690   -0.6900    0.0000 H       1  UNL1        0.0623
     15 H           1.4631   -2.3100    0.0000 H       1  UNL1        0.0618
     16 H           4.2690   -2.3100    0.0000 H       1  UNL1        0.0618
     17 H           4.2881   -0.0369    0.0000 H       1  UNL1        0.0307
     18 H           5.1350    0.1900    0.0000 H       1  UNL1        0.0307
     19 H           4.9081    1.0369    0.0000 H       1  UNL1        0.0307
     20 H           2.8660   -3.1200    0.0000 H       1  UNL1        0.0618
     21 H           4.9081    1.9631    0.0000 H       1  UNL1        0.0660
     22 H           5.1350    2.8100    0.0000 H       1  UNL1        0.0660
     23 H           4.2881    3.0369    0.0000 H       1  UNL1        0.0660
@<TRIPOS>BOND
     1     1     4    1
     2     1    11    1
     3     2     3    1
     4     2     5   ar
     5     2     6   ar
     6     3     4    2
     7     3    12    1
     8     4     9    1
     9     5     7   ar
    10     5    13    1
    11     6     8   ar
    12     6    14    1
    13     7    10   ar
    14     7    15    1
    15     8    10   ar
    16     8    16    1
    17     9    17    1
    18     9    18    1
    19     9    19    1
    20    10    20    1
    21    11    21    1
    22    11    22    1
    23    11    23    1
