@<TRIPOS>MOLECULE
IMPHY013244
 30 32 0 0 0
SMALL
GASTEIGER

@<TRIPOS>ATOM
      1 O           6.0682   -1.6581    0.0000 O.2     1  UNL1       -0.4542
      2 O           9.5984    0.3661    0.0000 O.3     1  UNL1       -0.4914
      3 O           7.8167    1.3765    0.0000 O.3     1  UNL1       -0.5027
      4 O           6.0682    1.3419    0.0000 O.2     1  UNL1       -0.2861
      5 O           4.3198    1.3765    0.0000 O.3     1  UNL1       -0.5058
      6 O           2.5381   -1.6822    0.0000 O.3     1  UNL1       -0.5065
      7 C           6.9343   -0.1581    0.0000 C.ar    1  UNL1        0.1096
      8 C           5.2022   -0.1581    0.0000 C.ar    1  UNL1        0.1062
      9 C           6.9343   -1.1581    0.0000 C.ar    1  UNL1        0.1430
     10 C           5.2022   -1.1581    0.0000 C.ar    1  UNL1        0.1463
     11 C           6.0682    0.3419    0.0000 C.ar    1  UNL1        0.2074
     12 C           7.8282    0.3766    0.0000 C.ar    1  UNL1        0.1731
     13 C           4.3083    0.3766    0.0000 C.ar    1  UNL1        0.1347
     14 C           7.8282   -1.6927    0.0000 C.ar    1  UNL1       -0.0149
     15 C           8.7343   -0.1372    0.0000 C.ar    1  UNL1        0.1622
     16 C           4.3083   -1.6927    0.0000 C.ar    1  UNL1        0.0231
     17 C           8.7343   -1.1789    0.0000 C.ar    1  UNL1       -0.0128
     18 C           3.4022   -0.1372    0.0000 C.ar    1  UNL1        0.0223
     19 C           3.4022   -1.1789    0.0000 C.ar    1  UNL1        0.1239
     20 C          10.4663   -0.1306    0.0000 C.3     1  UNL1        0.0790
     21 H           7.8210   -2.3127    0.0000 H       1  UNL1        0.0656
     22 H           4.3154   -2.3127    0.0000 H       1  UNL1        0.0691
     23 H           9.2700   -1.4909    0.0000 H       1  UNL1        0.0656
     24 H           2.8665    0.1748    0.0000 H       1  UNL1        0.0691
     25 H           8.3500    1.6927    0.0000 H       1  UNL1        0.2923
     26 H           3.7865    1.6927    0.0000 H       1  UNL1        0.2922
     27 H           2.0000   -1.3743    0.0000 H       1  UNL1        0.2921
     28 H          10.1584   -0.6687    0.0000 H       1  UNL1        0.0660
     29 H          11.0045   -0.4385    0.0000 H       1  UNL1        0.0660
     30 H          10.7743    0.4076    0.0000 H       1  UNL1        0.0660
@<TRIPOS>BOND
     1     1     9   ar
     2     1    10   ar
     3     2    15    1
     4     2    20    1
     5     3    12    1
     6     3    25    1
     7     4    11    2
     8     5    13    1
     9     5    26    1
    10     6    19    1
    11     6    27    1
    12     7     9   ar
    13     7    11   ar
    14     7    12   ar
    15     8    10   ar
    16     8    11   ar
    17     8    13   ar
    18     9    14   ar
    19    10    16   ar
    20    12    15   ar
    21    13    18   ar
    22    14    17   ar
    23    14    21    1
    24    15    17   ar
    25    16    19   ar
    26    16    22    1
    27    17    23    1
    28    18    19   ar
    29    18    24    1
    30    20    28    1
    31    20    29    1
    32    20    30    1
