@<TRIPOS>MOLECULE
IMPHY016969
 24 24 0 0 0
SMALL
GASTEIGER

@<TRIPOS>ATOM
      1 O           4.5981    2.0000    0.0000 O.3     1  UNL1       -0.3825
      2 O           2.0000    0.5000    0.0000 O.2     1  UNL1       -0.2920
      3 C           3.7320    0.5000    0.0000 C.3     1  UNL1        0.0339
      4 C           2.8660    0.0000    0.0000 C.2     1  UNL1        0.1653
      5 C           3.7320    1.5000    0.0000 C.3     1  UNL1        0.0543
      6 C           2.8660   -1.0000    0.0000 C.ar    1  UNL1        0.0175
      7 C           3.7320   -1.5000    0.0000 C.ar    1  UNL1       -0.0513
      8 C           2.0000   -1.5000    0.0000 C.ar    1  UNL1       -0.0513
      9 C           3.7320   -2.5000    0.0000 C.ar    1  UNL1       -0.0611
     10 C           2.0000   -2.5000    0.0000 C.ar    1  UNL1       -0.0611
     11 C           2.8660   -3.0000    0.0000 C.ar    1  UNL1       -0.0617
     12 C           4.5981    3.0000    0.0000 C.3     1  UNL1        0.0365
     13 H           3.9441   -0.0826    0.0000 H       1  UNL1        0.0368
     14 H           4.3426    0.6077    0.0000 H       1  UNL1        0.0368
     15 H           3.5200    2.0826    0.0000 H       1  UNL1        0.0564
     16 H           3.1215    1.3923    0.0000 H       1  UNL1        0.0564
     17 H           4.2690   -1.1900    0.0000 H       1  UNL1        0.0624
     18 H           1.4631   -1.1900    0.0000 H       1  UNL1        0.0624
     19 H           4.2690   -2.8100    0.0000 H       1  UNL1        0.0618
     20 H           1.4631   -2.8100    0.0000 H       1  UNL1        0.0618
     21 H           2.8660   -3.6200    0.0000 H       1  UNL1        0.0618
     22 H           5.2181    3.0000    0.0000 H       1  UNL1        0.0523
     23 H           4.5981    3.6200    0.0000 H       1  UNL1        0.0523
     24 H           3.9781    3.0000    0.0000 H       1  UNL1        0.0523
@<TRIPOS>BOND
     1     1     5    1
     2     1    12    1
     3     2     4    2
     4     3     4    1
     5     3     5    1
     6     3    13    1
     7     3    14    1
     8     4     6    1
     9     5    15    1
    10     5    16    1
    11     6     7   ar
    12     6     8   ar
    13     7     9   ar
    14     7    17    1
    15     8    10   ar
    16     8    18    1
    17     9    11   ar
    18     9    19    1
    19    10    11   ar
    20    10    20    1
    21    11    21    1
    22    12    22    1
    23    12    23    1
    24    12    24    1
