@<TRIPOS>MOLECULE
IMPHY003946
 56 59 0 0 0
SMALL
GASTEIGER

@<TRIPOS>ATOM
      1 O           8.4369    2.3323    0.0000 O.3     1  UNL1       -0.3860
      2 O           9.4579    1.7133    0.0000 O.3     1  UNL1       -0.3922
      3 O           2.3052   -2.1910    0.0000 O.3     1  UNL1       -0.4802
      4 O           3.8128   -3.0437    0.0000 O.2     1  UNL1       -0.2504
      5 C           6.5090    0.3000    0.0000 C.3     1  UNL1       -0.0229
      6 C           5.6405    0.7956    0.0000 C.3     1  UNL1       -0.0296
      7 C           4.7330    0.2843    0.0000 C.3     1  UNL1       -0.0249
      8 C           4.7302   -0.7574    0.0000 C.3     1  UNL1       -0.0198
      9 C           6.4845    1.4813    0.0000 C.3     1  UNL1       -0.0415
     10 C           7.1606    2.4504    0.0000 C.3     1  UNL1       -0.0094
     11 C           7.4380    0.6699    0.0000 C.3     1  UNL1       -0.0156
     12 C           6.5302   -0.7415    0.0000 C.3     1  UNL1       -0.0467
     13 C           7.7280    1.6270    0.0000 C.3     1  UNL1        0.0923
     14 C           5.4865    1.7837    0.0000 C.3     1  UNL1       -0.0489
     15 C           5.6349   -1.2737    0.0000 C.3     1  UNL1       -0.0482
     16 C           6.1630    2.5201    0.0000 C.3     1  UNL1       -0.0472
     17 C           3.7975   -1.3118    0.0000 C.3     1  UNL1        0.0681
     18 C           3.8034    0.8437    0.0000 C.3     1  UNL1       -0.0470
     19 C           4.3936    1.2249    0.0000 C.3     1  UNL1       -0.0590
     20 C           2.8552   -0.7740    0.0000 C.3     1  UNL1       -0.0372
     21 C           2.8582    0.3110    0.0000 C.3     1  UNL1       -0.0515
     22 C           8.6179    1.1708    0.0000 C.3     1  UNL1        0.0732
     23 C           4.3052   -2.1733    0.0000 C.3     1  UNL1       -0.0491
     24 C           3.3052   -2.1822    0.0000 C.2     1  UNL1        0.3110
     25 H           4.9023    1.2170    0.0000 H       1  UNL1        0.0311
     26 H           4.7377   -1.6073    0.0000 H       1  UNL1        0.0317
     27 H           6.1103    1.9756    0.0000 H       1  UNL1        0.0274
     28 H           5.8988    1.2778    0.0000 H       1  UNL1        0.0274
     29 H           7.4071    3.2639    0.0000 H       1  UNL1        0.0329
     30 H           7.5335    0.0573    0.0000 H       1  UNL1        0.0299
     31 H           8.0565    0.6267    0.0000 H       1  UNL1        0.0299
     32 H           6.7512   -1.3208    0.0000 H       1  UNL1        0.0271
     33 H           7.1388   -0.6229    0.0000 H       1  UNL1        0.0271
     34 H           5.1347    2.2942    0.0000 H       1  UNL1        0.0268
     35 H           4.9105    1.5543    0.0000 H       1  UNL1        0.0268
     36 H           5.2399   -1.7516    0.0000 H       1  UNL1        0.0269
     37 H           6.0382   -1.7446    0.0000 H       1  UNL1        0.0269
     38 H           6.3428    3.1135    0.0000 H       1  UNL1        0.0269
     39 H           5.6246    2.8275    0.0000 H       1  UNL1        0.0269
     40 H           4.2093    1.3124    0.0000 H       1  UNL1        0.0271
     41 H           3.4111    1.3238    0.0000 H       1  UNL1        0.0271
     42 H           4.9768    1.4353    0.0000 H       1  UNL1        0.0235
     43 H           4.1831    1.8081    0.0000 H       1  UNL1        0.0235
     44 H           3.8104    1.0144    0.0000 H       1  UNL1        0.0235
     45 H           2.2446   -0.6662    0.0000 H       1  UNL1        0.0276
     46 H           2.6446   -1.3571    0.0000 H       1  UNL1        0.0276
     47 H           2.6507    0.8953    0.0000 H       1  UNL1        0.0266
     48 H           2.2470    0.2066    0.0000 H       1  UNL1        0.0266
     49 H           8.2435    0.6765    0.0000 H       1  UNL1        0.0586
     50 H           9.0396    0.7163    0.0000 H       1  UNL1        0.0586
     51 H           3.7710   -2.4881    0.0000 H       1  UNL1        0.0240
     52 H           4.6199   -2.7075    0.0000 H       1  UNL1        0.0240
     53 H           4.8393   -1.8586    0.0000 H       1  UNL1        0.0240
     54 H           8.2779    2.9316    0.0000 H       1  UNL1        0.2103
     55 H          10.0096    1.4304    0.0000 H       1  UNL1        0.2095
     56 H           2.0000   -2.7307    0.0000 H       1  UNL1        0.2951
@<TRIPOS>BOND
     1    13     1    1
     2     1    54    1
     3     2    22    1
     4     2    55    1
     5     3    24    1
     6     3    56    1
     7     4    24    2
     8     5     6    1
     9     5     9    1
    10     5    11    1
    11     5    12    1
    12     6     7    1
    13     6    14    1
    14     6    25    1
    15     7     8    1
    16     7    18    1
    17     7    19    1
    18     8    15    1
    19     8    17    1
    20     8    26    1
    21     9    10    1
    22     9    27    1
    23     9    28    1
    24    10    13    1
    25    10    16    1
    26    10    29    1
    27    11    13    1
    28    11    30    1
    29    11    31    1
    30    12    15    1
    31    12    32    1
    32    12    33    1
    33    13    22    1
    34    14    16    1
    35    14    34    1
    36    14    35    1
    37    15    36    1
    38    15    37    1
    39    16    38    1
    40    16    39    1
    41    17    20    1
    42    17    23    1
    43    17    24    1
    44    18    21    1
    45    18    40    1
    46    18    41    1
    47    19    42    1
    48    19    43    1
    49    19    44    1
    50    20    21    1
    51    20    45    1
    52    20    46    1
    53    21    47    1
    54    21    48    1
    55    22    49    1
    56    22    50    1
    57    23    51    1
    58    23    52    1
    59    23    53    1
