@<TRIPOS>MOLECULE
IMPHY000958
 38 40 0 0 0
SMALL
GASTEIGER

@<TRIPOS>ATOM
      1 O           5.1350    0.0158    0.0000 O.3     1  UNL1       -0.3313
      2 O           6.8671    0.0158    0.0000 O.3     1  UNL1       -0.4587
      3 O           5.1350   -2.9842    0.0000 O.3     1  UNL1       -0.3864
      4 O           3.4030   -1.9842    0.0000 O.3     1  UNL1       -0.3865
      5 O           6.8671   -1.9842    0.0000 O.3     1  UNL1       -0.3829
      6 O           2.5369   -0.4842    0.0000 O.3     1  UNL1       -0.3924
      7 N           6.3671    2.5456    0.0000 N.ar    1  UNL1       -0.3576
      8 C           5.1350   -1.9842    0.0000 C.3     1  UNL1        0.1152
      9 C           4.2690   -1.4842    0.0000 C.3     1  UNL1        0.1120
     10 C           6.0010   -1.4842    0.0000 C.3     1  UNL1        0.1454
     11 C           4.2690   -0.4842    0.0000 C.3     1  UNL1        0.1140
     12 C           6.0010   -0.4842    0.0000 C.3     1  UNL1        0.2309
     13 C           3.4030    0.0158    0.0000 C.3     1  UNL1        0.0731
     14 C           6.8671    1.0158    0.0000 C.ar    1  UNL1        0.1489
     15 C           7.6718    1.5994    0.0000 C.ar    1  UNL1        0.0415
     16 C           7.3611    2.5499    0.0000 C.ar    1  UNL1        0.0501
     17 C           6.0623    1.5994    0.0000 C.ar    1  UNL1        0.0451
     18 C           8.6503    1.3932    0.0000 C.ar    1  UNL1       -0.0491
     19 C           8.0290    3.2942    0.0000 C.ar    1  UNL1       -0.0377
     20 C           9.3181    2.1375    0.0000 C.ar    1  UNL1       -0.0610
     21 C           9.0075    3.0880    0.0000 C.ar    1  UNL1       -0.0598
     22 H           4.5981   -2.2942    0.0000 H       1  UNL1        0.0648
     23 H           4.2690   -2.1042    0.0000 H       1  UNL1        0.0647
     24 H           6.0010   -2.1042    0.0000 H       1  UNL1        0.0683
     25 H           4.2690    0.1358    0.0000 H       1  UNL1        0.0647
     26 H           6.0010    0.1358    0.0000 H       1  UNL1        0.1084
     27 H           3.8015    0.4907    0.0000 H       1  UNL1        0.0584
     28 H           3.0044    0.4907    0.0000 H       1  UNL1        0.0584
     29 H           4.5981   -3.2942    0.0000 H       1  UNL1        0.2100
     30 H           3.4030   -2.6042    0.0000 H       1  UNL1        0.2100
     31 H           6.8671   -2.6042    0.0000 H       1  UNL1        0.2102
     32 H           5.4730    1.4068    0.0000 H       1  UNL1        0.0844
     33 H           2.0000   -0.1742    0.0000 H       1  UNL1        0.2095
     34 H           6.0009    3.0459    0.0000 H       1  UNL1        0.1654
     35 H           8.8429    0.8039    0.0000 H       1  UNL1        0.0625
     36 H           7.8364    3.8835    0.0000 H       1  UNL1        0.0638
     37 H           9.9248    2.0096    0.0000 H       1  UNL1        0.0618
     38 H           9.4216    3.5495    0.0000 H       1  UNL1        0.0618
@<TRIPOS>BOND
     1     1    11    1
     2     1    12    1
     3    12     2    1
     4     2    14    1
     5     8     3    1
     6     3    29    1
     7     9     4    1
     8     4    30    1
     9    10     5    1
    10     5    31    1
    11     6    13    1
    12     6    33    1
    13     7    16   ar
    14     7    17   ar
    15     7    34    1
    16     8     9    1
    17     8    10    1
    18     8    22    1
    19     9    11    1
    20     9    23    1
    21    10    12    1
    22    10    24    1
    23    11    13    1
    24    11    25    1
    25    12    26    1
    26    13    27    1
    27    13    28    1
    28    14    15   ar
    29    14    17   ar
    30    15    16   ar
    31    15    18   ar
    32    16    19   ar
    33    17    32    1
    34    18    20   ar
    35    18    35    1
    36    19    21   ar
    37    19    36    1
    38    20    21   ar
    39    20    37    1
    40    21    38    1
