@<TRIPOS>MOLECULE
IMPHY001153
 28 30 0 0 0
SMALL
GASTEIGER

@<TRIPOS>ATOM
      1 O           2.0000    0.0307    0.0000 O.2     1  UNL1       -0.2677
      2 N           3.7657   -0.0960    0.0000 N.ar    1  UNL1       -0.3118
      3 N           7.8646    0.0452    0.0000 N.3     1  UNL1       -0.3150
      4 C           6.0745    1.1764    0.0000 C.3     1  UNL1       -0.0098
      5 C           5.8157    0.2105    0.0000 C.3     1  UNL1        0.0124
      6 C           5.3379    2.1591    0.0000 C.3     1  UNL1       -0.0381
      7 C           4.0413    0.8653    0.0000 C.3     1  UNL1        0.0304
      8 C           7.5062    0.9788    0.0000 C.3     1  UNL1        0.0004
      9 C           7.0874   -0.5841    0.0000 C.3     1  UNL1        0.0041
     10 C           4.5947   -0.6551    0.0000 C.ar    1  UNL1        0.0263
     11 C           4.5381   -1.6952    0.0000 C.ar    1  UNL1       -0.0418
     12 C           2.8225   -0.5381    0.0000 C.ar    1  UNL1        0.2515
     13 C           3.6054   -2.1591    0.0000 C.ar    1  UNL1       -0.0550
     14 C           2.7418   -1.5766    0.0000 C.ar    1  UNL1        0.0030
     15 H           6.2945    1.9975    0.0000 H       1  UNL1        0.0330
     16 H           5.5957   -0.6105    0.0000 H       1  UNL1        0.0376
     17 H           5.6557    2.6914    0.0000 H       1  UNL1        0.0276
     18 H           4.7248    2.2510    0.0000 H       1  UNL1        0.0276
     19 H           4.0362    1.4853    0.0000 H       1  UNL1        0.0496
     20 H           3.4270    0.9491    0.0000 H       1  UNL1        0.0496
     21 H           8.1140    1.1011    0.0000 H       1  UNL1        0.0427
     22 H           7.4871    1.5985    0.0000 H       1  UNL1        0.0427
     23 H           6.7028   -1.0705    0.0000 H       1  UNL1        0.0430
     24 H           7.5284   -1.0200    0.0000 H       1  UNL1        0.0430
     25 H           8.4634   -0.1153    0.0000 H       1  UNL1        0.1220
     26 H           5.0560   -2.0360    0.0000 H       1  UNL1        0.0635
     27 H           3.5645   -2.7777    0.0000 H       1  UNL1        0.0620
     28 H           2.1836   -1.8462    0.0000 H       1  UNL1        0.0672
@<TRIPOS>BOND
     1     1    12    2
     2     2     7    1
     3     2    10   ar
     4     2    12   ar
     5     3     8    1
     6     3     9    1
     7     3    25    1
     8     4     6    1
     9     4     7    1
    10     4     8    1
    11     4    15    1
    12     5     6    1
    13     5     9    1
    14     5    10    1
    15     5    16    1
    16     6    17    1
    17     6    18    1
    18     7    19    1
    19     7    20    1
    20     8    21    1
    21     8    22    1
    22     9    23    1
    23     9    24    1
    24    10    11   ar
    25    11    13   ar
    26    11    26    1
    27    12    14   ar
    28    13    14   ar
    29    13    27    1
    30    14    28    1
