@<TRIPOS>MOLECULE
IMPHY008010
 54 59 0 0 0
SMALL
GASTEIGER

@<TRIPOS>ATOM
      1 O           4.8520    0.9038    0.0000 O.3     1  UNL1       -0.4572
      2 O           6.1340   -2.0655    0.0000 O.3     1  UNL1       -0.3461
      3 O           4.3642   -2.0277    0.0000 O.3     1  UNL1       -0.3659
      4 O           4.1449   -0.6033    0.0000 O.2     1  UNL1       -0.2500
      5 N           3.0449    1.6708    0.0000 N.3     1  UNL1       -0.2811
      6 N           3.4398    1.3085    0.0000 N.pl3   1  UNL1       -0.3107
      7 C           4.3860    0.0038    0.0000 C.3     1  UNL1        0.0580
      8 C           4.3860    1.0038    0.0000 C.3     1  UNL1        0.1369
      9 C           5.2520   -0.4962    0.0000 C.3     1  UNL1        0.1375
     10 C           5.2520    1.5038    0.0000 C.3     1  UNL1        0.1392
     11 C           6.1180    0.0038    0.0000 C.3     1  UNL1        0.0071
     12 C           3.0449   -0.6632    0.0000 C.3     1  UNL1       -0.0258
     13 C           6.1180    1.0038    0.0000 C.3     1  UNL1       -0.0045
     14 C           3.4398   -0.3009    0.0000 C.ar    1  UNL1       -0.0154
     15 C           2.1061    0.5038    0.0000 C.3     1  UNL1        0.0016
     16 C           5.2360   -1.5377    0.0000 C.3     1  UNL1        0.1738
     17 C           4.8520    0.1038    0.0000 C.2     1  UNL1        0.3202
     18 C           2.8562    0.5038    0.0000 C.ar    1  UNL1        0.0348
     19 C           7.0280   -0.5031    0.0000 C.2     1  UNL1       -0.0439
     20 C           2.8307    2.6476    0.0000 C.3     1  UNL1       -0.0107
     21 C           3.6460    2.2870    0.0000 C.3     1  UNL1        0.0025
     22 C           3.5630   -1.3290    0.0000 C.ar    1  UNL1       -0.0561
     23 C           7.0361   -1.5446    0.0000 C.3     1  UNL1        0.0721
     24 C           2.0087   -0.0911    0.0000 C.ar    1  UNL1       -0.0403
     25 C           7.8882    0.0069    0.0000 C.2     1  UNL1       -0.0854
     26 C           2.8375   -1.8102    0.0000 C.ar    1  UNL1       -0.0614
     27 C           2.0000   -1.2550    0.0000 C.ar    1  UNL1       -0.0600
     28 C           8.7600   -0.4830    0.0000 C.3     1  UNL1       -0.0465
     29 H           5.2520    2.3538    0.0000 H       1  UNL1        0.0770
     30 H           6.8542    0.4288    0.0000 H       1  UNL1        0.0360
     31 H           2.5351   -1.0161    0.0000 H       1  UNL1        0.0288
     32 H           3.3602   -1.1971    0.0000 H       1  UNL1        0.0288
     33 H           6.7286    0.8961    0.0000 H       1  UNL1        0.0308
     34 H           6.3301    1.5864    0.0000 H       1  UNL1        0.0308
     35 H           1.6522    0.9261    0.0000 H       1  UNL1        0.0427
     36 H           1.6522    0.0814    0.0000 H       1  UNL1        0.0427
     37 H           5.2300   -2.1577    0.0000 H       1  UNL1        0.0919
     38 H           3.4363    2.7804    0.0000 H       1  UNL1        0.0391
     39 H           2.6979    3.2532    0.0000 H       1  UNL1        0.0391
     40 H           2.2251    2.5148    0.0000 H       1  UNL1        0.0391
     41 H           4.2527    2.1592    0.0000 H       1  UNL1        0.0428
     42 H           3.7738    2.8937    0.0000 H       1  UNL1        0.0428
     43 H           3.0393    2.4149    0.0000 H       1  UNL1        0.0428
     44 H           4.1258   -1.5892    0.0000 H       1  UNL1        0.0621
     45 H           7.2496   -2.1267    0.0000 H       1  UNL1        0.0608
     46 H           7.6461   -1.4338    0.0000 H       1  UNL1        0.0608
     47 H           1.4596    0.1969    0.0000 H       1  UNL1        0.0636
     48 H           4.3570   -2.6476    0.0000 H       1  UNL1        0.2125
     49 H           7.8811    0.6269    0.0000 H       1  UNL1        0.0570
     50 H           2.8376   -2.4302    0.0000 H       1  UNL1        0.0618
     51 H           1.4527   -1.5462    0.0000 H       1  UNL1        0.0618
     52 H           8.4562   -1.0235    0.0000 H       1  UNL1        0.0272
     53 H           9.3005   -0.7868    0.0000 H       1  UNL1        0.0272
     54 H           9.0638    0.0575    0.0000 H       1  UNL1        0.0272
@<TRIPOS>BOND
     1     1    10    1
     2     1    17    1
     3     2    16    1
     4     2    23    1
     5    16     3    1
     6     3    48    1
     7     4    17    2
     8     8     5    1
     9     5    15    1
    10     5    20    1
    11     6     8    1
    12     6    18    1
    13     6    21    1
    14     7     8    1
    15     7     9    1
    16     7    12    1
    17     7    14    1
    18     8    10    1
    19     9    11    1
    20     9    16    1
    21     9    17    1
    22    10    13    1
    23    10    29    1
    24    11    13    1
    25    11    19    1
    26    11    30    1
    27    12    15    1
    28    12    31    1
    29    12    32    1
    30    13    33    1
    31    13    34    1
    32    14    18   ar
    33    14    22   ar
    34    15    35    1
    35    15    36    1
    36    16    37    1
    37    18    24   ar
    38    19    23    1
    39    19    25    2
    40    20    38    1
    41    20    39    1
    42    20    40    1
    43    21    41    1
    44    21    42    1
    45    21    43    1
    46    22    26   ar
    47    22    44    1
    48    23    45    1
    49    23    46    1
    50    24    27   ar
    51    24    47    1
    52    25    28    1
    53    25    49    1
    54    26    27   ar
    55    26    50    1
    56    27    51    1
    57    28    52    1
    58    28    53    1
    59    28    54    1
