@<TRIPOS>MOLECULE
IMPHY007288
 37 38 0 0 0
SMALL
GASTEIGER

@<TRIPOS>ATOM
      1 O           5.1350   -0.5000    0.0000 O.3     1  UNL1       -0.3313
      2 O           6.8671   -0.5000    0.0000 O.3     1  UNL1       -0.4519
      3 O           5.1350   -3.5000    0.0000 O.3     1  UNL1       -0.3864
      4 O           3.4030   -2.5000    0.0000 O.3     1  UNL1       -0.3865
      5 O           6.8671   -2.5000    0.0000 O.3     1  UNL1       -0.3829
      6 O           2.5369   -1.0000    0.0000 O.3     1  UNL1       -0.3924
      7 O           5.1350    0.5000    0.0000 O.2     1  UNL1       -0.2617
      8 N           7.7331    2.0000    0.0000 N.ar    1  UNL1       -0.3134
      9 N           6.0010    2.0000    0.0000 N.ar    1  UNL1       -0.1743
     10 N           8.5991    0.5000    0.0000 N.pl3   1  UNL1       -0.3415
     11 N           6.8671    3.5000    0.0000 N.pl3   1  UNL1       -0.3289
     12 C           5.1350   -2.5000    0.0000 C.3     1  UNL1        0.1152
     13 C           4.2690   -2.0000    0.0000 C.3     1  UNL1        0.1120
     14 C           6.0010   -2.0000    0.0000 C.3     1  UNL1        0.1454
     15 C           4.2690   -1.0000    0.0000 C.3     1  UNL1        0.1140
     16 C           6.0010   -1.0000    0.0000 C.3     1  UNL1        0.2312
     17 C           3.4030   -0.5000    0.0000 C.3     1  UNL1        0.0731
     18 C           6.8671    0.5000    0.0000 C.ar    1  UNL1        0.2273
     19 C           7.7331    1.0000    0.0000 C.ar    1  UNL1        0.1445
     20 C           6.0010    1.0000    0.0000 C.ar    1  UNL1        0.3184
     21 C           6.8671    2.5000    0.0000 C.ar    1  UNL1        0.1952
     22 H           5.6720   -2.8100    0.0000 H       1  UNL1        0.0648
     23 H           4.2690   -2.6200    0.0000 H       1  UNL1        0.0647
     24 H           6.5380   -1.6900    0.0000 H       1  UNL1        0.0683
     25 H           4.2690   -0.3800    0.0000 H       1  UNL1        0.0647
     26 H           6.0010   -0.3800    0.0000 H       1  UNL1        0.1084
     27 H           3.8015   -0.0251    0.0000 H       1  UNL1        0.0584
     28 H           3.0044   -0.0251    0.0000 H       1  UNL1        0.0584
     29 H           4.5981   -3.8100    0.0000 H       1  UNL1        0.2100
     30 H           3.4030   -3.1200    0.0000 H       1  UNL1        0.2100
     31 H           6.8671   -3.1200    0.0000 H       1  UNL1        0.2102
     32 H           2.0000   -0.6900    0.0000 H       1  UNL1        0.2095
     33 H           8.2700    2.3100    0.0000 H       1  UNL1        0.1698
     34 H           9.1360    0.8100    0.0000 H       1  UNL1        0.1438
     35 H           8.5991   -0.1200    0.0000 H       1  UNL1        0.1438
     36 H           6.3301    3.8100    0.0000 H       1  UNL1        0.1451
     37 H           7.4040    3.8100    0.0000 H       1  UNL1        0.1451
@<TRIPOS>BOND
     1     1    15    1
     2     1    16    1
     3    16     2    1
     4     2    18    1
     5    12     3    1
     6     3    29    1
     7    13     4    1
     8     4    30    1
     9    14     5    1
    10     5    31    1
    11     6    17    1
    12     6    32    1
    13     7    20    2
    14     8    19   ar
    15     8    21   ar
    16     8    33    1
    17     9    20   ar
    18     9    21   ar
    19    10    19    1
    20    10    34    1
    21    10    35    1
    22    11    21    1
    23    11    36    1
    24    11    37    1
    25    12    13    1
    26    12    14    1
    27    12    22    1
    28    13    15    1
    29    13    23    1
    30    14    16    1
    31    14    24    1
    32    15    17    1
    33    15    25    1
    34    16    26    1
    35    17    27    1
    36    17    28    1
    37    18    19   ar
    38    18    20   ar
