@<TRIPOS>MOLECULE
IMPHY016821
 21 21 0 0 0
SMALL
GASTEIGER

@<TRIPOS>ATOM
      1 O           2.8660    0.5000    0.0000 O.3     1  UNL1       -0.4258
      2 O           4.5981    0.5000    0.0000 O.2     1  UNL1       -0.2504
      3 C           3.7320    2.0000    0.0000 C.3     1  UNL1        0.0425
      4 C           2.8660   -0.5000    0.0000 C.ar    1  UNL1        0.1316
      5 C           3.7320    1.0000    0.0000 C.2     1  UNL1        0.3121
      6 C           4.5981    2.5000    0.0000 C.3     1  UNL1       -0.0552
      7 C           2.0000   -1.0000    0.0000 C.ar    1  UNL1       -0.0192
      8 C           3.7320   -1.0000    0.0000 C.ar    1  UNL1       -0.0192
      9 C           2.0000   -2.0000    0.0000 C.ar    1  UNL1       -0.0583
     10 C           3.7320   -2.0000    0.0000 C.ar    1  UNL1       -0.0583
     11 C           2.8660   -2.5000    0.0000 C.ar    1  UNL1       -0.0615
     12 H           3.5200    2.5826    0.0000 H       1  UNL1        0.0375
     13 H           3.1215    1.8923    0.0000 H       1  UNL1        0.0375
     14 H           4.9081    1.9631    0.0000 H       1  UNL1        0.0235
     15 H           5.1350    2.8100    0.0000 H       1  UNL1        0.0235
     16 H           4.2881    3.0369    0.0000 H       1  UNL1        0.0235
     17 H           1.4631   -0.6900    0.0000 H       1  UNL1        0.0654
     18 H           4.2690   -0.6900    0.0000 H       1  UNL1        0.0654
     19 H           1.4631   -2.3100    0.0000 H       1  UNL1        0.0619
     20 H           4.2690   -2.3100    0.0000 H       1  UNL1        0.0619
     21 H           2.8660   -3.1200    0.0000 H       1  UNL1        0.0618
@<TRIPOS>BOND
     1     1     4    1
     2     1     5    1
     3     2     5    2
     4     3     5    1
     5     3     6    1
     6     3    12    1
     7     3    13    1
     8     4     7   ar
     9     4     8   ar
    10     6    14    1
    11     6    15    1
    12     6    16    1
    13     7     9   ar
    14     7    17    1
    15     8    10   ar
    16     8    18    1
    17     9    11   ar
    18     9    19    1
    19    10    11   ar
    20    10    20    1
    21    11    21    1
