@<TRIPOS>MOLECULE
IMPHY016063
 45 45 0 0 0
SMALL
GASTEIGER

@<TRIPOS>ATOM
      1 O           3.7601   -5.9371    0.0000 O.3     1  UNL1       -0.3931
      2 O           5.5202   -5.6583    0.0000 O.2     1  UNL1       -0.2500
      3 O           2.0000   -5.6583    0.0000 O.2     1  UNL1       -0.2503
      4 C           5.3910    1.5784    0.0000 C.3     1  UNL1       -0.0530
      5 C           4.9843    2.4920    0.0000 C.3     1  UNL1       -0.0531
      6 C           4.8032    0.7694    0.0000 C.3     1  UNL1       -0.0528
      7 C           5.5720    3.3010    0.0000 C.3     1  UNL1       -0.0531
      8 C           5.2100   -0.1441    0.0000 C.3     1  UNL1       -0.0496
      9 C           4.2601   -4.3983    0.0000 C.3     1  UNL1        0.0703
     10 C           5.1653    4.2146    0.0000 C.3     1  UNL1       -0.0533
     11 C           4.6222   -0.9531    0.0000 C.3     1  UNL1       -0.0348
     12 C           4.8479   -3.5892    0.0000 C.3     1  UNL1       -0.0213
     13 C           3.2601   -4.3983    0.0000 C.3     1  UNL1        0.0586
     14 C           5.7531    5.0236    0.0000 C.3     1  UNL1       -0.0559
     15 C           5.0289   -1.8667    0.0000 C.2     1  UNL1       -0.0879
     16 C           4.4411   -2.6757    0.0000 C.2     1  UNL1       -0.0871
     17 C           4.5691   -5.3493    0.0000 C.2     1  UNL1        0.3184
     18 C           2.9511   -5.3493    0.0000 C.2     1  UNL1        0.3152
     19 C           5.3464    5.9371    0.0000 C.3     1  UNL1       -0.0653
     20 H           5.8217    1.1324    0.0000 H       1  UNL1        0.0265
     21 H           5.9050    1.9251    0.0000 H       1  UNL1        0.0265
     22 H           4.5536    2.9380    0.0000 H       1  UNL1        0.0265
     23 H           4.4703    2.1453    0.0000 H       1  UNL1        0.0265
     24 H           4.3725    1.2154    0.0000 H       1  UNL1        0.0265
     25 H           4.2892    0.4227    0.0000 H       1  UNL1        0.0265
     26 H           6.0027    2.8550    0.0000 H       1  UNL1        0.0265
     27 H           6.0861    3.6477    0.0000 H       1  UNL1        0.0265
     28 H           5.6406   -0.5901    0.0000 H       1  UNL1        0.0268
     29 H           5.7240    0.2026    0.0000 H       1  UNL1        0.0268
     30 H           4.8724   -4.4953    0.0000 H       1  UNL1        0.0422
     31 H           4.7346    4.6605    0.0000 H       1  UNL1        0.0265
     32 H           4.6513    3.8678    0.0000 H       1  UNL1        0.0265
     33 H           4.1915   -0.5072    0.0000 H       1  UNL1        0.0307
     34 H           4.1082   -1.2998    0.0000 H       1  UNL1        0.0307
     35 H           5.2786   -4.0352    0.0000 H       1  UNL1        0.0315
     36 H           5.3619   -3.2426    0.0000 H       1  UNL1        0.0315
     37 H           3.3249   -3.7817    0.0000 H       1  UNL1        0.0386
     38 H           2.6536   -4.2694    0.0000 H       1  UNL1        0.0386
     39 H           6.1838    4.5776    0.0000 H       1  UNL1        0.0263
     40 H           6.2671    5.3703    0.0000 H       1  UNL1        0.0263
     41 H           5.6455   -1.9315    0.0000 H       1  UNL1        0.0569
     42 H           3.8245   -2.6109    0.0000 H       1  UNL1        0.0569
     43 H           5.9128    6.1893    0.0000 H       1  UNL1        0.0230
     44 H           5.0942    6.5035    0.0000 H       1  UNL1        0.0230
     45 H           4.7800    5.6849    0.0000 H       1  UNL1        0.0230
@<TRIPOS>BOND
     1     1    17    1
     2     1    18    1
     3     2    17    2
     4     3    18    2
     5     4     5    1
     6     4     6    1
     7     4    20    1
     8     4    21    1
     9     5     7    1
    10     5    22    1
    11     5    23    1
    12     6     8    1
    13     6    24    1
    14     6    25    1
    15     7    10    1
    16     7    26    1
    17     7    27    1
    18     8    11    1
    19     8    28    1
    20     8    29    1
    21     9    12    1
    22     9    13    1
    23     9    17    1
    24     9    30    1
    25    10    14    1
    26    10    31    1
    27    10    32    1
    28    11    15    1
    29    11    33    1
    30    11    34    1
    31    12    16    1
    32    12    35    1
    33    12    36    1
    34    13    18    1
    35    13    37    1
    36    13    38    1
    37    14    19    1
    38    14    39    1
    39    14    40    1
    40    15    16    2
    41    15    41    1
    42    16    42    1
    43    19    43    1
    44    19    44    1
    45    19    45    1
