@<TRIPOS>MOLECULE
IMPHY008094
 182 190 0 0 0
SMALL
GASTEIGER

@<TRIPOS>ATOM
      1 O          10.1185    1.5069    0.0000 O.3     1  UNL1       -0.3915
      2 O          11.8213   -4.6833    0.0000 O.3     1  UNL1       -0.3449
      3 O          10.7146    3.9697    0.0000 O.3     1  UNL1       -0.3422
      4 O          10.0893   -4.6833    0.0000 O.3     1  UNL1       -0.3405
      5 O          10.3509    5.6631    0.0000 O.3     1  UNL1       -0.3405
      6 O          11.8213   -6.6833    0.0000 O.3     1  UNL1       -0.3378
      7 O          12.6700    4.3896    0.0000 O.3     1  UNL1       -0.3841
      8 O          10.0893   -7.6833    0.0000 O.3     1  UNL1       -0.3864
      9 O          13.2840    6.2931    0.0000 O.3     1  UNL1       -0.3864
     10 O           8.3572   -6.6833    0.0000 O.3     1  UNL1       -0.3865
     11 O          11.9426    7.7765    0.0000 O.3     1  UNL1       -0.3865
     12 O           9.0095    7.1465    0.0000 O.3     1  UNL1       -0.3461
     13 O          10.9553   -8.1833    0.0000 O.3     1  UNL1       -0.3405
     14 O           7.4912   -5.1833    0.0000 O.3     1  UNL1       -0.3924
     15 O          13.5534   -7.6833    0.0000 O.3     1  UNL1       -0.3841
     16 O          13.5534   -9.6833    0.0000 O.3     1  UNL1       -0.3864
     17 O           7.3611    7.6783    0.0000 O.3     1  UNL1       -0.3461
     18 O          11.8213  -10.6833    0.0000 O.3     1  UNL1       -0.3865
     19 O           9.2232   -9.1833    0.0000 O.3     1  UNL1       -0.3924
     20 O           9.6235    9.0500    0.0000 O.3     1  UNL1       -0.3841
     21 O           8.2821   10.5334    0.0000 O.3     1  UNL1       -0.3864
     22 O           6.3266   10.1134    0.0000 O.3     1  UNL1       -0.3405
     23 O           4.6782   10.6452    0.0000 O.3     1  UNL1       -0.3461
     24 O           5.7127    8.2100    0.0000 O.3     1  UNL1       -0.3841
     25 O           3.7572    7.7900    0.0000 O.3     1  UNL1       -0.3864
     26 O           2.4158    9.2735    0.0000 O.3     1  UNL1       -0.3869
     27 C          12.7224    0.0170    0.0000 C.3     1  UNL1       -0.0229
     28 C          12.7185    1.0169    0.0000 C.3     1  UNL1       -0.0209
     29 C          11.8583   -0.4864    0.0000 C.3     1  UNL1       -0.0271
     30 C          11.8462   -1.5279    0.0000 C.3     1  UNL1       -0.0252
     31 C          11.8506    1.5136    0.0000 C.3     1  UNL1       -0.0036
     32 C          12.7463   -2.0522    0.0000 C.3     1  UNL1       -0.0278
     33 C          13.6343   -0.4864    0.0000 C.3     1  UNL1       -0.0466
     34 C          12.0560    2.4862    0.0000 C.3     1  UNL1       -0.0063
     35 C          10.9903    0.0103    0.0000 C.3     1  UNL1       -0.0227
     36 C          10.9865    1.0103    0.0000 C.3     1  UNL1        0.0592
     37 C          13.4530    1.6869    0.0000 C.3     1  UNL1       -0.0464
     38 C          13.6464   -1.5279    0.0000 C.3     1  UNL1       -0.0486
     39 C          12.7588   -3.1372    0.0000 C.3     1  UNL1       -0.0052
     40 C          13.0443    2.5931    0.0000 C.3     1  UNL1       -0.0467
     41 C          10.8963   -2.0522    0.0000 C.3     1  UNL1       -0.0447
     42 C          13.7065    0.1944    0.0000 C.3     1  UNL1       -0.0588
     43 C          13.7040    0.8471    0.0000 C.3     1  UNL1       -0.0587
     44 C          10.9821   -1.0246    0.0000 C.3     1  UNL1       -0.0590
     45 C          11.8213   -3.6833    0.0000 C.3     1  UNL1        0.0672
     46 C          11.3853    3.2279    0.0000 C.3     1  UNL1        0.0733
     47 C          10.8838   -3.1372    0.0000 C.3     1  UNL1       -0.0255
     48 C          13.7588   -3.1294    0.0000 C.3     1  UNL1       -0.0572
     49 C          13.2655   -3.9993    0.0000 C.3     1  UNL1       -0.0572
     50 C          12.1270    3.8986    0.0000 C.3     1  UNL1       -0.0202
     51 C          10.6436    2.5572    0.0000 C.3     1  UNL1       -0.0354
     52 C          13.0788    3.5916    0.0000 C.3     1  UNL1       -0.0319
     53 C          10.9553   -5.1833    0.0000 C.3     1  UNL1        0.1886
     54 C          11.0216    4.9214    0.0000 C.3     1  UNL1        0.1885
     55 C          10.9553   -6.1833    0.0000 C.3     1  UNL1        0.1406
     56 C          11.9993    5.1314    0.0000 C.3     1  UNL1        0.1341
     57 C          13.8205    4.2624    0.0000 C.2     1  UNL1       -0.0852
     58 C          10.0893   -6.6833    0.0000 C.3     1  UNL1        0.1144
     59 C          12.3063    6.0831    0.0000 C.3     1  UNL1        0.1141
     60 C           9.2232   -5.1833    0.0000 C.3     1  UNL1        0.1130
     61 C          10.6579    6.6148    0.0000 C.3     1  UNL1        0.1134
     62 C           9.2232   -6.1833    0.0000 C.3     1  UNL1        0.1119
     63 C          11.6356    6.8248    0.0000 C.3     1  UNL1        0.1119
     64 C          14.7722    3.9554    0.0000 C.2     1  UNL1       -0.0796
     65 C           8.3572   -4.6833    0.0000 C.3     1  UNL1        0.0730
     66 C           9.9872    7.3565    0.0000 C.3     1  UNL1        0.0796
     67 C          11.8213   -7.6833    0.0000 C.3     1  UNL1        0.1885
     68 C          15.5139    4.6261    0.0000 C.3     1  UNL1       -0.0440
     69 C          14.9822    2.9777    0.0000 C.3     1  UNL1       -0.0440
     70 C          12.6873   -8.1833    0.0000 C.3     1  UNL1        0.1341
     71 C          12.6873   -9.1833    0.0000 C.3     1  UNL1        0.1141
     72 C          10.9553   -9.1833    0.0000 C.3     1  UNL1        0.1130
     73 C          11.8213   -9.6833    0.0000 C.3     1  UNL1        0.1119
     74 C           8.3388    7.8883    0.0000 C.3     1  UNL1        0.1876
     75 C          10.0893   -9.6833    0.0000 C.3     1  UNL1        0.0730
     76 C           8.6458    8.8400    0.0000 C.3     1  UNL1        0.1341
     77 C           7.9751    9.5817    0.0000 C.3     1  UNL1        0.1141
     78 C           6.6904    8.4200    0.0000 C.3     1  UNL1        0.0796
     79 C           6.9974    9.3717    0.0000 C.3     1  UNL1        0.1134
     80 C           5.3490    9.9034    0.0000 C.3     1  UNL1        0.1880
     81 C           5.0420    8.9517    0.0000 C.3     1  UNL1        0.1341
     82 C           4.0642    8.7417    0.0000 C.3     1  UNL1        0.1137
     83 C           3.7005   10.4352    0.0000 C.3     1  UNL1        0.0792
     84 C           3.3935    9.4835    0.0000 C.3     1  UNL1        0.1069
     85 H          12.5928   -0.9142    0.0000 H       1  UNL1        0.0312
     86 H          11.1616    2.0115    0.0000 H       1  UNL1        0.0335
     87 H          13.4857   -2.4716    0.0000 H       1  UNL1        0.0312
     88 H          14.2464   -0.5854    0.0000 H       1  UNL1        0.0271
     89 H          13.8366    0.0997    0.0000 H       1  UNL1        0.0271
     90 H          12.3586    3.2805    0.0000 H       1  UNL1        0.0332
     91 H          10.3793    0.1156    0.0000 H       1  UNL1        0.0293
     92 H          10.7805   -0.5731    0.0000 H       1  UNL1        0.0293
     93 H          10.9841    1.6303    0.0000 H       1  UNL1        0.0596
     94 H          13.8203    1.1874    0.0000 H       1  UNL1        0.0271
     95 H          13.9882    1.9997    0.0000 H       1  UNL1        0.0271
     96 H          13.8622   -2.1092    0.0000 H       1  UNL1        0.0268
     97 H          14.2560   -1.4148    0.0000 H       1  UNL1        0.0268
     98 H          13.6332    2.7871    0.0000 H       1  UNL1        0.0269
     99 H          12.9133    3.1991    0.0000 H       1  UNL1        0.0269
    100 H          10.6940   -1.4662    0.0000 H       1  UNL1        0.0271
    101 H          10.2843   -2.1513    0.0000 H       1  UNL1        0.0271
    102 H          13.8165   -0.4158    0.0000 H       1  UNL1        0.0235
    103 H          14.3167    0.3044    0.0000 H       1  UNL1        0.0235
    104 H          13.5965    0.8046    0.0000 H       1  UNL1        0.0235
    105 H          13.5987    0.2361    0.0000 H       1  UNL1        0.0235
    106 H          14.3150    0.7418    0.0000 H       1  UNL1        0.0235
    107 H          13.8093    1.4581    0.0000 H       1  UNL1        0.0235
    108 H          11.2942   -0.4889    0.0000 H       1  UNL1        0.0235
    109 H          10.4464   -0.7125    0.0000 H       1  UNL1        0.0235
    110 H          10.6701   -1.5603    0.0000 H       1  UNL1        0.0235
    111 H          11.2838   -3.9922    0.0000 H       1  UNL1        0.0602
    112 H          10.2742   -3.0240    0.0000 H       1  UNL1        0.0290
    113 H          10.6680   -3.7184    0.0000 H       1  UNL1        0.0290
    114 H          13.7636   -3.7494    0.0000 H       1  UNL1        0.0236
    115 H          14.3788   -3.1247    0.0000 H       1  UNL1        0.0236
    116 H          13.7540   -2.5095    0.0000 H       1  UNL1        0.0236
    117 H          12.7310   -4.3134    0.0000 H       1  UNL1        0.0236
    118 H          13.5796   -4.5338    0.0000 H       1  UNL1        0.0236
    119 H          13.8000   -3.6852    0.0000 H       1  UNL1        0.0236
    120 H           9.5828    1.1949    0.0000 H       1  UNL1        0.2098
    121 H          12.4169    4.4467    0.0000 H       1  UNL1        0.0296
    122 H          11.6377    4.2793    0.0000 H       1  UNL1        0.0296
    123 H          10.2278    3.0171    0.0000 H       1  UNL1        0.0257
    124 H          10.1837    2.1414    0.0000 H       1  UNL1        0.0257
    125 H          11.0594    2.0974    0.0000 H       1  UNL1        0.0257
    126 H          12.7888    3.0436    0.0000 H       1  UNL1        0.0308
    127 H          13.5681    3.2110    0.0000 H       1  UNL1        0.0308
    128 H          11.4922   -5.4933    0.0000 H       1  UNL1        0.0938
    129 H          10.4154    4.7912    0.0000 H       1  UNL1        0.0938
    130 H          10.9553   -6.8033    0.0000 H       1  UNL1        0.0675
    131 H          12.6055    5.2616    0.0000 H       1  UNL1        0.0671
    132 H          13.6903    4.8685    0.0000 H       1  UNL1        0.0571
    133 H           9.5523   -6.9933    0.0000 H       1  UNL1        0.0648
    134 H          12.4966    6.6731    0.0000 H       1  UNL1        0.0648
    135 H           9.2232   -4.5633    0.0000 H       1  UNL1        0.0647
    136 H          10.0517    6.4846    0.0000 H       1  UNL1        0.0647
    137 H           8.6863   -5.8733    0.0000 H       1  UNL1        0.0647
    138 H          11.2198    7.2847    0.0000 H       1  UNL1        0.0647
    139 H          13.2762    4.5198    0.0000 H       1  UNL1        0.2101
    140 H           8.7557   -4.2083    0.0000 H       1  UNL1        0.0584
    141 H           7.9587   -4.2083    0.0000 H       1  UNL1        0.0584
    142 H          10.5123    7.6862    0.0000 H       1  UNL1        0.0587
    143 H           9.7537    7.9309    0.0000 H       1  UNL1        0.0587
    144 H          11.2844   -7.3733    0.0000 H       1  UNL1        0.0938
    145 H           9.5523   -7.9933    0.0000 H       1  UNL1        0.2100
    146 H          13.4743    6.8831    0.0000 H       1  UNL1        0.2100
    147 H          15.9297    4.1662    0.0000 H       1  UNL1        0.0274
    148 H          15.9738    5.0419    0.0000 H       1  UNL1        0.0274
    149 H          15.0981    5.0859    0.0000 H       1  UNL1        0.0274
    150 H          14.3760    2.8475    0.0000 H       1  UNL1        0.0274
    151 H          15.1124    2.3715    0.0000 H       1  UNL1        0.0274
    152 H          15.5883    3.1078    0.0000 H       1  UNL1        0.0274
    153 H           8.3572   -7.3033    0.0000 H       1  UNL1        0.2100
    154 H          11.5268    8.2364    0.0000 H       1  UNL1        0.2100
    155 H          13.2243   -8.4933    0.0000 H       1  UNL1        0.0671
    156 H           6.9542   -4.8733    0.0000 H       1  UNL1        0.2095
    157 H          12.6873   -9.8033    0.0000 H       1  UNL1        0.0648
    158 H          10.4183   -8.8733    0.0000 H       1  UNL1        0.0647
    159 H          11.2844   -9.9933    0.0000 H       1  UNL1        0.0647
    160 H           8.1484    7.2982    0.0000 H       1  UNL1        0.0937
    161 H          13.5534   -7.0633    0.0000 H       1  UNL1        0.2101
    162 H           9.6907  -10.1582    0.0000 H       1  UNL1        0.0584
    163 H          10.4878  -10.1582    0.0000 H       1  UNL1        0.0584
    164 H           8.8361    9.4300    0.0000 H       1  UNL1        0.0671
    165 H          13.5534  -10.3033    0.0000 H       1  UNL1        0.2100
    166 H          11.2844  -10.9933    0.0000 H       1  UNL1        0.2100
    167 H           7.5592   10.0416    0.0000 H       1  UNL1        0.0648
    168 H           6.1423    8.7099    0.0000 H       1  UNL1        0.0587
    169 H           6.3097    7.9306    0.0000 H       1  UNL1        0.0587
    170 H           6.3912    9.2415    0.0000 H       1  UNL1        0.0647
    171 H           8.6863   -9.4933    0.0000 H       1  UNL1        0.2095
    172 H           9.8138    9.6400    0.0000 H       1  UNL1        0.2101
    173 H           7.8662   10.9933    0.0000 H       1  UNL1        0.2100
    174 H           5.5393   10.4935    0.0000 H       1  UNL1        0.0937
    175 H           5.6481    9.0819    0.0000 H       1  UNL1        0.0671
    176 H           4.4801    8.2819    0.0000 H       1  UNL1        0.0647
    177 H           3.6776   11.0547    0.0000 H       1  UNL1        0.0587
    178 H           3.0864   10.5202    0.0000 H       1  UNL1        0.0587
    179 H           3.2032    8.8934    0.0000 H       1  UNL1        0.0643
    180 H           5.5223    7.6199    0.0000 H       1  UNL1        0.2101
    181 H           3.1511    7.6598    0.0000 H       1  UNL1        0.2100
    182 H           2.0000    9.7333    0.0000 H       1  UNL1        0.2100
@<TRIPOS>BOND
     1    36     1    1
     2     1   120    1
     3    45     2    1
     4    53     2    1
     5    46     3    1
     6    54     3    1
     7     4    53    1
     8     4    60    1
     9     5    54    1
    10     5    61    1
    11    55     6    1
    12    67     6    1
    13    56     7    1
    14     7   139    1
    15    58     8    1
    16     8   145    1
    17    59     9    1
    18     9   146    1
    19    62    10    1
    20    10   153    1
    21    63    11    1
    22    11   154    1
    23    12    66    1
    24    74    12    1
    25    13    67    1
    26    13    72    1
    27    14    65    1
    28    14   156    1
    29    70    15    1
    30    15   161    1
    31    71    16    1
    32    16   165    1
    33    17    74    1
    34    17    78    1
    35    73    18    1
    36    18   166    1
    37    19    75    1
    38    19   171    1
    39    76    20    1
    40    20   172    1
    41    77    21    1
    42    21   173    1
    43    79    22    1
    44    80    22    1
    45    23    80    1
    46    23    83    1
    47    81    24    1
    48    24   180    1
    49    82    25    1
    50    25   181    1
    51    84    26    1
    52    26   182    1
    53    27    28    1
    54    27    29    1
    55    27    33    1
    56    27    42    1
    57    28    31    1
    58    28    37    1
    59    28    43    1
    60    29    30    1
    61    29    35    1
    62    29    85    1
    63    30    32    1
    64    30    41    1
    65    30    44    1
    66    31    34    1
    67    31    36    1
    68    31    86    1
    69    32    38    1
    70    32    39    1
    71    32    87    1
    72    33    38    1
    73    33    88    1
    74    33    89    1
    75    34    40    1
    76    34    46    1
    77    34    90    1
    78    35    36    1
    79    35    91    1
    80    35    92    1
    81    36    93    1
    82    37    40    1
    83    37    94    1
    84    37    95    1
    85    38    96    1
    86    38    97    1
    87    39    45    1
    88    39    48    1
    89    39    49    1
    90    40    98    1
    91    40    99    1
    92    41    47    1
    93    41   100    1
    94    41   101    1
    95    42   102    1
    96    42   103    1
    97    42   104    1
    98    43   105    1
    99    43   106    1
   100    43   107    1
   101    44   108    1
   102    44   109    1
   103    44   110    1
   104    45    47    1
   105    45   111    1
   106    46    50    1
   107    46    51    1
   108    47   112    1
   109    47   113    1
   110    48   114    1
   111    48   115    1
   112    48   116    1
   113    49   117    1
   114    49   118    1
   115    49   119    1
   116    50    52    1
   117    50   121    1
   118    50   122    1
   119    51   123    1
   120    51   124    1
   121    51   125    1
   122    52    57    1
   123    52   126    1
   124    52   127    1
   125    53    55    1
   126    53   128    1
   127    54    56    1
   128    54   129    1
   129    55    58    1
   130    55   130    1
   131    56    59    1
   132    56   131    1
   133    57    64    2
   134    57   132    1
   135    58    62    1
   136    58   133    1
   137    59    63    1
   138    59   134    1
   139    60    62    1
   140    60    65    1
   141    60   135    1
   142    61    63    1
   143    61    66    1
   144    61   136    1
   145    62   137    1
   146    63   138    1
   147    64    68    1
   148    64    69    1
   149    65   140    1
   150    65   141    1
   151    66   142    1
   152    66   143    1
   153    67    70    1
   154    67   144    1
   155    68   147    1
   156    68   148    1
   157    68   149    1
   158    69   150    1
   159    69   151    1
   160    69   152    1
   161    70    71    1
   162    70   155    1
   163    71    73    1
   164    71   157    1
   165    72    73    1
   166    72    75    1
   167    72   158    1
   168    73   159    1
   169    74    76    1
   170    74   160    1
   171    75   162    1
   172    75   163    1
   173    76    77    1
   174    76   164    1
   175    77    79    1
   176    77   167    1
   177    78    79    1
   178    78   168    1
   179    78   169    1
   180    79   170    1
   181    80    81    1
   182    80   174    1
   183    81    82    1
   184    81   175    1
   185    82    84    1
   186    82   176    1
   187    83    84    1
   188    83   177    1
   189    83   178    1
   190    84   179    1
