@<TRIPOS>MOLECULE
IMPHY004531
 27 27 0 0 0
SMALL
GASTEIGER

@<TRIPOS>ATOM
      1 O           2.6200    1.5000    0.0000 O.3     1  UNL1       -0.3840
      2 C           3.1200    0.6340    0.0000 C.3     1  UNL1        0.0902
      3 C           2.2540    0.1340    0.0000 C.3     1  UNL1       -0.0162
      4 C           3.9860    0.1340    0.0000 C.3     1  UNL1       -0.0017
      5 C           2.2540   -0.8660    0.0000 C.3     1  UNL1       -0.0291
      6 C           3.1200   -1.3660    0.0000 C.2     1  UNL1       -0.0763
      7 C           3.6200    1.5000    0.0000 C.2     1  UNL1       -0.0483
      8 C           3.9860   -0.8660    0.0000 C.2     1  UNL1       -0.0820
      9 C           3.1200   -2.3660    0.0000 C.3     1  UNL1       -0.0438
     10 C           4.6200    1.5000    0.0000 C.3     1  UNL1       -0.0414
     11 C           3.1200    2.3660    0.0000 C.2     1  UNL1       -0.0970
     12 H           2.0419    0.7166    0.0000 H       1  UNL1        0.0299
     13 H           1.6434    0.0263    0.0000 H       1  UNL1        0.0299
     14 H           4.5966    0.0263    0.0000 H       1  UNL1        0.0338
     15 H           4.1981    0.7166    0.0000 H       1  UNL1        0.0338
     16 H           1.6434   -0.7584    0.0000 H       1  UNL1        0.0311
     17 H           2.0419   -1.4486    0.0000 H       1  UNL1        0.0311
     18 H           4.5230   -1.1760    0.0000 H       1  UNL1        0.0573
     19 H           2.0000    1.5000    0.0000 H       1  UNL1        0.2106
     20 H           2.5000   -2.3660    0.0000 H       1  UNL1        0.0274
     21 H           3.1200   -2.9860    0.0000 H       1  UNL1        0.0274
     22 H           3.7400   -2.3660    0.0000 H       1  UNL1        0.0274
     23 H           4.6200    0.8800    0.0000 H       1  UNL1        0.0275
     24 H           5.2400    1.5000    0.0000 H       1  UNL1        0.0275
     25 H           4.6200    2.1200    0.0000 H       1  UNL1        0.0275
     26 H           3.4300    2.9030    0.0000 H       1  UNL1        0.0535
     27 H           2.5000    2.3660    0.0000 H       1  UNL1        0.0535
@<TRIPOS>BOND
     1     1     2    1
     2     1    19    1
     3     2     3    1
     4     2     4    1
     5     2     7    1
     6     3     5    1
     7     3    12    1
     8     3    13    1
     9     4     8    1
    10     4    14    1
    11     4    15    1
    12     5     6    1
    13     5    16    1
    14     5    17    1
    15     6     8    2
    16     6     9    1
    17     7    10    1
    18     7    11    2
    19     8    18    1
    20     9    20    1
    21     9    21    1
    22     9    22    1
    23    10    23    1
    24    10    24    1
    25    10    25    1
    26    11    26    1
    27    11    27    1
