@<TRIPOS>MOLECULE
IMPHY015386
 19 18 0 0 0
SMALL
GASTEIGER

@<TRIPOS>ATOM
      1 O           6.3301    0.2500    0.0000 O.3     1  UNL1       -0.3947
      2 C           4.5981    0.2500    0.0000 C.3     1  UNL1       -0.0112
      3 C           2.8660    0.2500    0.0000 C.2     1  UNL1       -0.0795
      4 C           3.7320    0.7500    0.0000 C.2     1  UNL1       -0.0831
      5 C           5.4641    0.7500    0.0000 C.3     1  UNL1        0.0476
      6 C           2.0000    0.7500    0.0000 C.3     1  UNL1       -0.0440
      7 C           2.8660   -0.7500    0.0000 C.3     1  UNL1       -0.0440
      8 H           4.1996   -0.2249    0.0000 H       1  UNL1        0.0330
      9 H           4.9966   -0.2249    0.0000 H       1  UNL1        0.0330
     10 H           3.7320    1.3700    0.0000 H       1  UNL1        0.0572
     11 H           5.8626    1.2250    0.0000 H       1  UNL1        0.0560
     12 H           5.0656    1.2250    0.0000 H       1  UNL1        0.0560
     13 H           2.3100    1.2869    0.0000 H       1  UNL1        0.0274
     14 H           1.4631    1.0600    0.0000 H       1  UNL1        0.0274
     15 H           1.6900    0.2131    0.0000 H       1  UNL1        0.0274
     16 H           2.2460   -0.7500    0.0000 H       1  UNL1        0.0274
     17 H           2.8660   -1.3700    0.0000 H       1  UNL1        0.0274
     18 H           3.4860   -0.7500    0.0000 H       1  UNL1        0.0274
     19 H           6.8671    0.5600    0.0000 H       1  UNL1        0.2094
@<TRIPOS>BOND
     1     1     5    1
     2     1    19    1
     3     2     4    1
     4     2     5    1
     5     2     8    1
     6     2     9    1
     7     3     4    2
     8     3     6    1
     9     3     7    1
    10     4    10    1
    11     5    11    1
    12     5    12    1
    13     6    13    1
    14     6    14    1
    15     6    15    1
    16     7    16    1
    17     7    17    1
    18     7    18    1
