@<TRIPOS>MOLECULE
IMPHY016749
 55 57 0 0 0
SMALL
GASTEIGER

@<TRIPOS>ATOM
      1 O           2.4900   -2.2957    0.0000 O.3     1  UNL1       -0.4675
      2 O           3.9999   -3.1443    0.0000 O.2     1  UNL1       -0.2502
      3 C           4.8738    0.1223    0.0000 C.3     1  UNL1       -0.0214
      4 C           4.8738   -0.8777    0.0000 C.3     1  UNL1       -0.0193
      5 C           3.9798   -1.4124    0.0000 C.3     1  UNL1        0.0683
      6 C           5.7398    0.6223    0.0000 C.3     1  UNL1       -0.0105
      7 C           3.9798    0.6570    0.0000 C.3     1  UNL1       -0.0468
      8 C           5.7398   -1.3777    0.0000 C.3     1  UNL1       -0.0450
      9 C           3.0738   -0.8985    0.0000 C.3     1  UNL1       -0.0372
     10 C           3.0738    0.1431    0.0000 C.3     1  UNL1       -0.0515
     11 C           6.6058    0.1223    0.0000 C.2     1  UNL1       -0.0654
     12 C           6.6058   -0.8777    0.0000 C.3     1  UNL1       -0.0309
     13 C           4.8738    1.1223    0.0000 C.3     1  UNL1       -0.0587
     14 C           5.7238    1.6638    0.0000 C.3     1  UNL1       -0.0272
     15 C           4.4898   -2.2725    0.0000 C.3     1  UNL1       -0.0491
     16 C           3.4899   -2.2841    0.0000 C.2     1  UNL1        0.3131
     17 C           7.5158    0.6292    0.0000 C.2     1  UNL1       -0.0591
     18 C           6.6218    2.1916    0.0000 C.2     1  UNL1       -0.0800
     19 C           7.5239    1.6708    0.0000 C.2     1  UNL1       -0.0487
     20 C           8.3918    2.1674    0.0000 C.3     1  UNL1       -0.0218
     21 C           8.3957    3.1674    0.0000 C.3     1  UNL1       -0.0587
     22 C           9.2559    1.6641    0.0000 C.3     1  UNL1       -0.0587
     23 C           2.0000   -3.1674    0.0000 C.3     1  UNL1        0.0817
     24 H           4.8803   -1.7277    0.0000 H       1  UNL1        0.0317
     25 H           6.4726    1.0530    0.0000 H       1  UNL1        0.0354
     26 H           4.3844    1.1268    0.0000 H       1  UNL1        0.0271
     27 H           3.5862    1.1360    0.0000 H       1  UNL1        0.0271
     28 H           5.3413   -1.8526    0.0000 H       1  UNL1        0.0271
     29 H           6.1383   -1.8526    0.0000 H       1  UNL1        0.0271
     30 H           2.4629   -0.7924    0.0000 H       1  UNL1        0.0276
     31 H           2.8647   -1.4822    0.0000 H       1  UNL1        0.0276
     32 H           2.8647    0.7268    0.0000 H       1  UNL1        0.0266
     33 H           2.4629    0.0370    0.0000 H       1  UNL1        0.0266
     34 H           6.8179   -1.4603    0.0000 H       1  UNL1        0.0310
     35 H           7.2164   -0.7700    0.0000 H       1  UNL1        0.0310
     36 H           5.4938    1.1223    0.0000 H       1  UNL1        0.0235
     37 H           4.8738    1.7423    0.0000 H       1  UNL1        0.0235
     38 H           4.2538    1.1223    0.0000 H       1  UNL1        0.0235
     39 H           5.5057    2.2442    0.0000 H       1  UNL1        0.0313
     40 H           5.1146    1.5483    0.0000 H       1  UNL1        0.0313
     41 H           3.9565   -2.5887    0.0000 H       1  UNL1        0.0240
     42 H           4.8060   -2.8058    0.0000 H       1  UNL1        0.0240
     43 H           5.0231   -1.9564    0.0000 H       1  UNL1        0.0240
     44 H           8.0491    0.3130    0.0000 H       1  UNL1        0.0620
     45 H           6.6194    2.8116    0.0000 H       1  UNL1        0.0575
     46 H           8.9299    2.4754    0.0000 H       1  UNL1        0.0343
     47 H           9.0157    3.1650    0.0000 H       1  UNL1        0.0235
     48 H           8.3980    3.7874    0.0000 H       1  UNL1        0.0235
     49 H           7.7757    3.1698    0.0000 H       1  UNL1        0.0235
     50 H           8.9438    1.1284    0.0000 H       1  UNL1        0.0235
     51 H           9.7916    1.3520    0.0000 H       1  UNL1        0.0235
     52 H           9.5680    2.1998    0.0000 H       1  UNL1        0.0235
     53 H           1.4595   -2.8636    0.0000 H       1  UNL1        0.0661
     54 H           1.6962   -3.7079    0.0000 H       1  UNL1        0.0661
     55 H           2.5405   -3.4712    0.0000 H       1  UNL1        0.0661
@<TRIPOS>BOND
     1     1    16    1
     2     1    23    1
     3     2    16    2
     4     3     4    1
     5     3     6    1
     6     3     7    1
     7     3    13    1
     8     4     5    1
     9     4     8    1
    10     4    24    1
    11     5     9    1
    12     5    15    1
    13     5    16    1
    14     6    11    1
    15     6    14    1
    16     6    25    1
    17     7    10    1
    18     7    26    1
    19     7    27    1
    20     8    12    1
    21     8    28    1
    22     8    29    1
    23     9    10    1
    24     9    30    1
    25     9    31    1
    26    10    32    1
    27    10    33    1
    28    11    12    1
    29    11    17    2
    30    12    34    1
    31    12    35    1
    32    13    36    1
    33    13    37    1
    34    13    38    1
    35    14    18    1
    36    14    39    1
    37    14    40    1
    38    15    41    1
    39    15    42    1
    40    15    43    1
    41    17    19    1
    42    17    44    1
    43    18    19    2
    44    18    45    1
    45    19    20    1
    46    20    21    1
    47    20    22    1
    48    20    46    1
    49    21    47    1
    50    21    48    1
    51    21    49    1
    52    22    50    1
    53    22    51    1
    54    22    52    1
    55    23    53    1
    56    23    54    1
    57    23    55    1
