@<TRIPOS>MOLECULE
IMPHY004256
 30 32 0 0 0
SMALL
GASTEIGER

@<TRIPOS>ATOM
      1 O           6.4144    2.0346    0.0000 O.3     1  UNL1       -0.5058
      2 O           6.4144   -2.0346    0.0000 O.3     1  UNL1       -0.5060
      3 O           4.6660    2.0000    0.0000 O.2     1  UNL1       -0.2864
      4 O           4.6660   -2.0000    0.0000 O.2     1  UNL1       -0.2865
      5 O           2.9176    2.0346    0.0000 O.3     1  UNL1       -0.5060
      6 C           5.5321    0.5000    0.0000 C.ar    1  UNL1        0.0783
      7 C           5.5321   -0.5000    0.0000 C.ar    1  UNL1        0.0779
      8 C           3.8000    0.5000    0.0000 C.ar    1  UNL1        0.0745
      9 C           3.8000   -0.5000    0.0000 C.ar    1  UNL1        0.0367
     10 C           4.6660    1.0000    0.0000 C.2     1  UNL1        0.2016
     11 C           4.6660   -1.0000    0.0000 C.2     1  UNL1        0.1982
     12 C           6.4260    1.0347    0.0000 C.ar    1  UNL1        0.1315
     13 C           6.4260   -1.0347    0.0000 C.ar    1  UNL1        0.1288
     14 C           7.3321    0.5208    0.0000 C.ar    1  UNL1       -0.0048
     15 C           7.3321   -0.5208    0.0000 C.ar    1  UNL1       -0.0131
     16 C           2.9061    1.0347    0.0000 C.ar    1  UNL1        0.1283
     17 C           2.9061   -1.0347    0.0000 C.ar    1  UNL1       -0.0500
     18 C           8.1962    1.0241    0.0000 C.3     1  UNL1       -0.0361
     19 C           2.0000    0.5208    0.0000 C.ar    1  UNL1       -0.0194
     20 C           2.0000   -0.5208    0.0000 C.ar    1  UNL1       -0.0576
     21 H           7.8678   -0.8329    0.0000 H       1  UNL1        0.0658
     22 H           2.9132   -1.6546    0.0000 H       1  UNL1        0.0625
     23 H           8.5082    0.4884    0.0000 H       1  UNL1        0.0279
     24 H           8.7319    1.3362    0.0000 H       1  UNL1        0.0279
     25 H           7.8841    1.5599    0.0000 H       1  UNL1        0.0279
     26 H           1.4643    0.8329    0.0000 H       1  UNL1        0.0654
     27 H           1.4643   -0.8329    0.0000 H       1  UNL1        0.0619
     28 H           6.9478    2.3508    0.0000 H       1  UNL1        0.2922
     29 H           6.9478   -2.3508    0.0000 H       1  UNL1        0.2922
     30 H           2.3843    2.3508    0.0000 H       1  UNL1        0.2922
@<TRIPOS>BOND
     1     1    12    1
     2     1    28    1
     3     2    13    1
     4     2    29    1
     5     3    10    2
     6     4    11    2
     7     5    16    1
     8     5    30    1
     9     6     7   ar
    10     6    10    1
    11     6    12   ar
    12     7    11    1
    13     7    13   ar
    14     8     9   ar
    15     8    10    1
    16     8    16   ar
    17     9    11    1
    18     9    17   ar
    19    12    14   ar
    20    13    15   ar
    21    14    15   ar
    22    14    18    1
    23    15    21    1
    24    16    19   ar
    25    17    20   ar
    26    17    22    1
    27    18    23    1
    28    18    24    1
    29    18    25    1
    30    19    20   ar
    31    19    26    1
    32    20    27    1
