@<TRIPOS>MOLECULE
IMPHY008503
 54 58 0 0 0
SMALL
GASTEIGER

@<TRIPOS>ATOM
      1 O           7.3852   -1.7099    0.0000 O.3     1  UNL1       -0.4910
      2 O           9.3729   -2.7600    0.0000 O.3     1  UNL1       -0.4489
      3 O          10.8248   -1.9218    0.0000 O.3     1  UNL1       -0.4525
      4 O           2.8680   -0.2243    0.0000 O.3     1  UNL1       -0.4911
      5 O           2.8680    1.8674    0.0000 O.3     1  UNL1       -0.4914
      6 O           3.8272   -1.7661    0.0000 O.3     1  UNL1       -0.3903
      7 N           7.4070    1.3215    0.0000 N.3     1  UNL1       -0.2905
      8 C           7.4070    0.3215    0.0000 C.3     1  UNL1        0.0438
      9 C           6.5130   -0.2131    0.0000 C.3     1  UNL1       -0.0070
     10 C           8.2730   -0.1785    0.0000 C.ar    1  UNL1        0.0187
     11 C           8.2730    1.8215    0.0000 C.3     1  UNL1        0.0038
     12 C           6.5130    1.8562    0.0000 C.3     1  UNL1        0.0250
     13 C           5.6070    0.3007    0.0000 C.ar    1  UNL1       -0.0321
     14 C           9.1390    1.3215    0.0000 C.3     1  UNL1       -0.0143
     15 C           9.1390    0.3215    0.0000 C.ar    1  UNL1       -0.0343
     16 C           5.6070    1.3423    0.0000 C.ar    1  UNL1       -0.0261
     17 C           8.2570   -1.2200    0.0000 C.ar    1  UNL1        0.1702
     18 C           4.6758   -0.2562    0.0000 C.ar    1  UNL1        0.0266
     19 C          10.0490   -0.1853    0.0000 C.ar    1  UNL1       -0.0124
     20 C           4.6758    1.8993    0.0000 C.ar    1  UNL1       -0.0116
     21 C           9.1550   -1.7477    0.0000 C.ar    1  UNL1        0.2079
     22 C          10.0571   -1.2269    0.0000 C.ar    1  UNL1        0.1702
     23 C           3.7320    0.2790    0.0000 C.ar    1  UNL1        0.1671
     24 C           3.7320    1.3640    0.0000 C.ar    1  UNL1        0.1621
     25 C           4.6874   -1.2561    0.0000 C.3     1  UNL1        0.0730
     26 C          10.4028   -2.8674    0.0000 C.3     1  UNL1        0.2334
     27 C           7.3736   -2.7099    0.0000 C.3     1  UNL1        0.0790
     28 C           2.0000    0.2724    0.0000 C.3     1  UNL1        0.0790
     29 C           2.8718    2.8674    0.0000 C.3     1  UNL1        0.0790
     30 H           7.4135   -0.5284    0.0000 H       1  UNL1        0.0517
     31 H           6.1194   -0.6922    0.0000 H       1  UNL1        0.0332
     32 H           6.9176   -0.6829    0.0000 H       1  UNL1        0.0332
     33 H           8.6716    2.2965    0.0000 H       1  UNL1        0.0430
     34 H           7.8745    2.2965    0.0000 H       1  UNL1        0.0430
     35 H           6.9176    2.3260    0.0000 H       1  UNL1        0.0476
     36 H           6.1194    2.3352    0.0000 H       1  UNL1        0.0476
     37 H           9.7496    1.2139    0.0000 H       1  UNL1        0.0326
     38 H           9.3511    1.9041    0.0000 H       1  UNL1        0.0326
     39 H          10.5824    0.1309    0.0000 H       1  UNL1        0.0658
     40 H           4.6830    2.5192    0.0000 H       1  UNL1        0.0658
     41 H           4.9062   -1.8363    0.0000 H       1  UNL1        0.0608
     42 H           5.2967   -1.1414    0.0000 H       1  UNL1        0.0608
     43 H          10.2741   -3.4738    0.0000 H       1  UNL1        0.1166
     44 H          10.9924   -3.0591    0.0000 H       1  UNL1        0.1166
     45 H           6.7537   -2.7027    0.0000 H       1  UNL1        0.0660
     46 H           7.3665   -3.3298    0.0000 H       1  UNL1        0.0660
     47 H           7.9936   -2.7170    0.0000 H       1  UNL1        0.0660
     48 H           3.8344   -2.3861    0.0000 H       1  UNL1        0.2098
     49 H           2.3079    0.8105    0.0000 H       1  UNL1        0.0660
     50 H           1.4619    0.5803    0.0000 H       1  UNL1        0.0660
     51 H           1.6921   -0.2658    0.0000 H       1  UNL1        0.0660
     52 H           3.4918    2.8650    0.0000 H       1  UNL1        0.0660
     53 H           2.8742    3.4874    0.0000 H       1  UNL1        0.0660
     54 H           2.2518    2.8697    0.0000 H       1  UNL1        0.0660
@<TRIPOS>BOND
     1     1    17    1
     2     1    27    1
     3     2    21    1
     4     2    26    1
     5     3    22    1
     6     3    26    1
     7     4    23    1
     8     4    28    1
     9     5    24    1
    10     5    29    1
    11     6    25    1
    12     6    48    1
    13     7     8    1
    14     7    11    1
    15     7    12    1
    16     8     9    1
    17     8    10    1
    18     8    30    1
    19     9    13    1
    20     9    31    1
    21     9    32    1
    22    10    15   ar
    23    10    17   ar
    24    11    14    1
    25    11    33    1
    26    11    34    1
    27    12    16    1
    28    12    35    1
    29    12    36    1
    30    13    16   ar
    31    13    18   ar
    32    14    15    1
    33    14    37    1
    34    14    38    1
    35    15    19   ar
    36    16    20   ar
    37    17    21   ar
    38    18    23   ar
    39    18    25    1
    40    19    22   ar
    41    19    39    1
    42    20    24   ar
    43    20    40    1
    44    21    22   ar
    45    23    24   ar
    46    25    41    1
    47    25    42    1
    48    26    43    1
    49    26    44    1
    50    27    45    1
    51    27    46    1
    52    27    47    1
    53    28    49    1
    54    28    50    1
    55    28    51    1
    56    29    52    1
    57    29    53    1
    58    29    54    1
