@<TRIPOS>MOLECULE
IMPHY010734
 44 48 0 0 0
SMALL
GASTEIGER

@<TRIPOS>ATOM
      1 O           6.0010   -1.7500    0.0000 O.3     1  UNL1       -0.3157
      2 O          12.1292    1.7808    0.0000 O.3     1  UNL1       -0.3157
      3 O           5.1350   -0.2500    0.0000 O.3     1  UNL1       -0.4440
      4 O          10.3972    1.7741    0.0000 O.3     1  UNL1       -0.4503
      5 O           3.4030   -3.2500    0.0000 O.3     1  UNL1       -0.2173
      6 O           5.1350   -4.2500    0.0000 O.3     1  UNL1       -0.2176
      7 O           3.4030   -1.2500    0.0000 O.3     1  UNL1       -0.2135
      8 O          12.1408   -1.2192    0.0000 O.3     1  UNL1       -0.2173
      9 O          13.8690   -0.2125    0.0000 O.3     1  UNL1       -0.2176
     10 O          10.4049   -0.2258    0.0000 O.3     1  UNL1       -0.2135
     11 O           6.8671   -4.2500    0.0000 O.3     1  UNL1       -0.2176
     12 O          13.8574    2.7875    0.0000 O.3     1  UNL1       -0.2176
     13 O           6.8671    1.7500    0.0000 O.2     1  UNL1       -0.4500
     14 O           6.8671   -1.2500    0.0000 O.2     1  UNL1       -0.2830
     15 O           8.6155   -1.2846    0.0000 O.3     1  UNL1       -0.2862
     16 O           4.2690    4.2500    0.0000 O.3     1  UNL1       -0.2831
     17 O           2.5369    3.2500    0.0000 O.3     1  UNL1       -0.2831
     18 C           4.2690   -2.7500    0.0000 C.3     1  UNL1        0.2211
     19 C           5.1350   -3.2500    0.0000 C.3     1  UNL1        0.2145
     20 C           4.2690   -1.7500    0.0000 C.3     1  UNL1        0.2542
     21 C           6.0010   -2.7500    0.0000 C.3     1  UNL1        0.1846
     22 C          12.1369   -0.2192    0.0000 C.3     1  UNL1        0.2211
     23 C          13.0010    0.2842    0.0000 C.3     1  UNL1        0.2145
     24 C          11.2690    0.2775    0.0000 C.3     1  UNL1        0.2542
     25 C          12.9972    1.2842    0.0000 C.3     1  UNL1        0.1846
     26 C           5.1350   -1.2500    0.0000 C.3     1  UNL1        0.3220
     27 C          11.2651    1.2775    0.0000 C.3     1  UNL1        0.3218
     28 C           6.8671   -3.2500    0.0000 C.3     1  UNL1        0.2142
     29 C          13.8613    1.7875    0.0000 C.3     1  UNL1        0.2142
     30 C           6.0010    0.2500    0.0000 C.ar    1  UNL1        0.2144
     31 C           9.5331    1.2708    0.0000 C.ar    1  UNL1        0.1476
     32 C           7.7331    0.2500    0.0000 C.ar    1  UNL1        0.1156
     33 C           6.8671   -0.2500    0.0000 C.ar    1  UNL1        0.2384
     34 C           6.0010    1.2500    0.0000 C.ar    1  UNL1        0.1823
     35 C           7.7331    1.2500    0.0000 C.ar    1  UNL1        0.1547
     36 C           8.6270    1.7847    0.0000 C.ar    1  UNL1        0.0748
     37 C           9.5331    0.2292    0.0000 C.ar    1  UNL1        0.0793
     38 C           8.6270   -0.2847    0.0000 C.ar    1  UNL1        0.2048
     39 C           5.1350    1.7500    0.0000 C.ar    1  UNL1        0.0411
     40 C           5.1350    2.7500    0.0000 C.ar    1  UNL1        0.0485
     41 C           4.2690    1.2500    0.0000 C.ar    1  UNL1        0.0066
     42 C           4.2690    3.2500    0.0000 C.ar    1  UNL1        0.2344
     43 C           3.4030    1.7500    0.0000 C.ar    1  UNL1        0.0455
     44 C           3.4030    2.7500    0.0000 C.ar    1  UNL1        0.2343
@<TRIPOS>BOND
     1     1    21    1
     2     1    26    1
     3     2    25    1
     4     2    27    1
     5     3    30    1
     6     4    31    1
     7    11    28    1
     8    12    29    1
     9    13    34   ar
    10    13    35   ar
    11    14    33    2
    12    15    38    1
    13    16    42    1
    14    17    44    1
    15    18     5    1
    16    18    19    1
    17    18    20    1
    18    19     6    1
    19    19    21    1
    20    20     7    1
    21    20    26    1
    22    21    28    1
    23    22     8    1
    24    22    23    1
    25    22    24    1
    26    23     9    1
    27    23    25    1
    28    24    10    1
    29    24    27    1
    30    25    29    1
    31    26     3    1
    32    27     4    1
    33    30    33   ar
    34    30    34   ar
    35    31    36   ar
    36    31    37   ar
    37    32    33   ar
    38    32    35   ar
    39    32    38   ar
    40    34    39    1
    41    35    36   ar
    42    37    38   ar
    43    39    40   ar
    44    39    41   ar
    45    40    42   ar
    46    41    43   ar
    47    42    44   ar
    48    43    44   ar
