@<TRIPOS>MOLECULE
IMPHY014107
 36 38 0 0 0
SMALL
GASTEIGER

@<TRIPOS>ATOM
      1 O           6.0682   -2.2327    0.0000 O.2     1  UNL1       -0.4620
      2 O           8.6663   -1.7327    0.0000 O.3     1  UNL1       -0.4944
      3 O           6.0682    0.7673    0.0000 O.2     1  UNL1       -0.2864
      4 O          10.3984    1.2673    0.0000 O.3     1  UNL1       -0.4950
      5 O           2.5381   -2.2568    0.0000 O.3     1  UNL1       -0.5066
      6 C           6.9343   -0.7327    0.0000 C.ar    1  UNL1        0.0678
      7 C           7.8003   -0.2327    0.0000 C.ar    1  UNL1        0.0306
      8 C           5.2022   -0.7327    0.0000 C.ar    1  UNL1        0.0648
      9 C           6.0682   -0.2327    0.0000 C.ar    1  UNL1        0.2003
     10 C           5.2022   -1.7327    0.0000 C.ar    1  UNL1        0.1419
     11 C           8.6663   -0.7327    0.0000 C.ar    1  UNL1        0.1314
     12 C           6.9343   -1.7327    0.0000 C.ar    1  UNL1        0.1040
     13 C           7.8003    0.7673    0.0000 C.ar    1  UNL1       -0.0469
     14 C           4.3083   -0.1980    0.0000 C.ar    1  UNL1       -0.0439
     15 C           9.5323   -0.2327    0.0000 C.ar    1  UNL1        0.0224
     16 C           4.3083   -2.2673    0.0000 C.ar    1  UNL1        0.0228
     17 C           9.5323    0.7673    0.0000 C.ar    1  UNL1        0.1236
     18 C           8.6663    1.2673    0.0000 C.ar    1  UNL1       -0.0191
     19 C           3.4022   -0.7119    0.0000 C.ar    1  UNL1       -0.0193
     20 C           3.4022   -1.7535    0.0000 C.ar    1  UNL1        0.1204
     21 C           9.5323   -2.2327    0.0000 C.3     1  UNL1        0.0788
     22 C          10.3984    2.2673    0.0000 C.3     1  UNL1        0.0788
     23 H           7.4712   -2.0427    0.0000 H       1  UNL1        0.1037
     24 H           7.2634    1.0773    0.0000 H       1  UNL1        0.0626
     25 H           4.3154    0.4220    0.0000 H       1  UNL1        0.0627
     26 H          10.0693   -0.5427    0.0000 H       1  UNL1        0.0691
     27 H           4.3154   -2.8873    0.0000 H       1  UNL1        0.0691
     28 H           8.6663    1.8873    0.0000 H       1  UNL1        0.0654
     29 H           2.8665   -0.3998    0.0000 H       1  UNL1        0.0654
     30 H           9.2224   -2.7696    0.0000 H       1  UNL1        0.0660
     31 H          10.0693   -2.5427    0.0000 H       1  UNL1        0.0660
     32 H           9.8424   -1.6957    0.0000 H       1  UNL1        0.0660
     33 H           2.0000   -1.9489    0.0000 H       1  UNL1        0.2921
     34 H          11.0184    2.2673    0.0000 H       1  UNL1        0.0660
     35 H          10.3984    2.8873    0.0000 H       1  UNL1        0.0660
     36 H           9.7784    2.2673    0.0000 H       1  UNL1        0.0660
@<TRIPOS>BOND
     1     1    10   ar
     2     1    12   ar
     3     2    11    1
     4     2    21    1
     5     3     9    2
     6     4    17    1
     7     4    22    1
     8     5    20    1
     9     5    33    1
    10     6     7    1
    11     6     9   ar
    12     6    12   ar
    13     7    11   ar
    14     7    13   ar
    15     8     9   ar
    16     8    10   ar
    17     8    14   ar
    18    10    16   ar
    19    11    15   ar
    20    12    23    1
    21    13    18   ar
    22    13    24    1
    23    14    19   ar
    24    14    25    1
    25    15    17   ar
    26    15    26    1
    27    16    20   ar
    28    16    27    1
    29    17    18   ar
    30    18    28    1
    31    19    20   ar
    32    19    29    1
    33    21    30    1
    34    21    31    1
    35    21    32    1
    36    22    34    1
    37    22    35    1
    38    22    36    1
