@<TRIPOS>MOLECULE
IMPHY015718
 77 76 0 0 0
SMALL
GASTEIGER

@<TRIPOS>ATOM
      1 SI          8.0622    0.0000    0.0000 Si      1  UNL1        0.0000
      2 SI          9.7942    0.0000    0.0000 Si      1  UNL1        0.0000
      3 SI          6.3301    0.0000    0.0000 Si      1  UNL1        0.0000
      4 SI         11.5263   -0.0000    0.0000 Si      1  UNL1        0.0000
      5 SI          4.5981    0.0000    0.0000 Si      1  UNL1        0.0000
      6 SI         13.2583   -0.0000    0.0000 Si      1  UNL1        0.0000
      7 SI          2.8660   -0.0000    0.0000 Si      1  UNL1        0.0000
      8 O           8.9282    0.5000    0.0000 O.3     1  UNL1        0.0000
      9 O           7.1962   -0.5000    0.0000 O.3     1  UNL1        0.0000
     10 O          10.6603   -0.5000    0.0000 O.3     1  UNL1        0.0000
     11 O           5.4641    0.5000    0.0000 O.3     1  UNL1        0.0000
     12 O          12.3923    0.5000    0.0000 O.3     1  UNL1        0.0000
     13 O           3.7320   -0.5000    0.0000 O.3     1  UNL1        0.0000
     14 C           7.5622    0.8660    0.0000 C.3     1  UNL1        0.0000
     15 C           8.5622   -0.8660    0.0000 C.3     1  UNL1        0.0000
     16 C          10.2942    0.8660    0.0000 C.3     1  UNL1        0.0000
     17 C           9.2942   -0.8660    0.0000 C.3     1  UNL1        0.0000
     18 C           5.8301   -0.8660    0.0000 C.3     1  UNL1        0.0000
     19 C           6.8301    0.8660    0.0000 C.3     1  UNL1        0.0000
     20 C          12.0263   -0.8660    0.0000 C.3     1  UNL1        0.0000
     21 C          11.0263    0.8660    0.0000 C.3     1  UNL1        0.0000
     22 C           4.0981    0.8660    0.0000 C.3     1  UNL1        0.0000
     23 C           5.0981   -0.8660    0.0000 C.3     1  UNL1        0.0000
     24 C          14.1244   -0.5000    0.0000 C.3     1  UNL1        0.0000
     25 C          13.7583    0.8660    0.0000 C.3     1  UNL1        0.0000
     26 C          12.7583   -0.8660    0.0000 C.3     1  UNL1        0.0000
     27 C           2.0000    0.5000    0.0000 C.3     1  UNL1        0.0000
     28 C           2.3660   -0.8660    0.0000 C.3     1  UNL1        0.0000
     29 C           3.3660    0.8660    0.0000 C.3     1  UNL1        0.0000
     30 H           8.0991    1.1760    0.0000 H       1  UNL1        0.0000
     31 H           7.2522    1.4030    0.0000 H       1  UNL1        0.0000
     32 H           7.0252    0.5560    0.0000 H       1  UNL1        0.0000
     33 H           8.0252   -1.1760    0.0000 H       1  UNL1        0.0000
     34 H           8.8722   -1.4030    0.0000 H       1  UNL1        0.0000
     35 H           9.0991   -0.5560    0.0000 H       1  UNL1        0.0000
     36 H          10.8312    0.5560    0.0000 H       1  UNL1        0.0000
     37 H          10.6042    1.4030    0.0000 H       1  UNL1        0.0000
     38 H           9.7573    1.1760    0.0000 H       1  UNL1        0.0000
     39 H           8.7573   -0.5560    0.0000 H       1  UNL1        0.0000
     40 H           8.9842   -1.4030    0.0000 H       1  UNL1        0.0000
     41 H           9.8312   -1.1760    0.0000 H       1  UNL1        0.0000
     42 H           5.2932   -0.5560    0.0000 H       1  UNL1        0.0000
     43 H           5.5201   -1.4030    0.0000 H       1  UNL1        0.0000
     44 H           6.3671   -1.1760    0.0000 H       1  UNL1        0.0000
     45 H           7.3671    0.5560    0.0000 H       1  UNL1        0.0000
     46 H           7.1401    1.4030    0.0000 H       1  UNL1        0.0000
     47 H           6.2932    1.1760    0.0000 H       1  UNL1        0.0000
     48 H          11.4893   -1.1760    0.0000 H       1  UNL1        0.0000
     49 H          12.3363   -1.4030    0.0000 H       1  UNL1        0.0000
     50 H          12.5632   -0.5560    0.0000 H       1  UNL1        0.0000
     51 H          11.5632    1.1760    0.0000 H       1  UNL1        0.0000
     52 H          10.7163    1.4030    0.0000 H       1  UNL1        0.0000
     53 H          10.4893    0.5560    0.0000 H       1  UNL1        0.0000
     54 H           4.6350    1.1760    0.0000 H       1  UNL1        0.0000
     55 H           3.7881    1.4030    0.0000 H       1  UNL1        0.0000
     56 H           3.5611    0.5560    0.0000 H       1  UNL1        0.0000
     57 H           4.5611   -1.1760    0.0000 H       1  UNL1        0.0000
     58 H           5.4081   -1.4030    0.0000 H       1  UNL1        0.0000
     59 H           5.6350   -0.5560    0.0000 H       1  UNL1        0.0000
     60 H          13.8144   -1.0369    0.0000 H       1  UNL1        0.0000
     61 H          14.6613   -0.8100    0.0000 H       1  UNL1        0.0000
     62 H          14.4344    0.0369    0.0000 H       1  UNL1        0.0000
     63 H          14.2953    0.5560    0.0000 H       1  UNL1        0.0000
     64 H          14.0683    1.4030    0.0000 H       1  UNL1        0.0000
     65 H          13.2214    1.1760    0.0000 H       1  UNL1        0.0000
     66 H          12.2214   -0.5560    0.0000 H       1  UNL1        0.0000
     67 H          12.4483   -1.4030    0.0000 H       1  UNL1        0.0000
     68 H          13.2953   -1.1760    0.0000 H       1  UNL1        0.0000
     69 H           2.3100    1.0369    0.0000 H       1  UNL1        0.0000
     70 H           1.4631    0.8100    0.0000 H       1  UNL1        0.0000
     71 H           1.6900   -0.0369    0.0000 H       1  UNL1        0.0000
     72 H           1.8291   -0.5560    0.0000 H       1  UNL1        0.0000
     73 H           2.0560   -1.4030    0.0000 H       1  UNL1        0.0000
     74 H           2.9030   -1.1760    0.0000 H       1  UNL1        0.0000
     75 H           3.9030    0.5560    0.0000 H       1  UNL1        0.0000
     76 H           3.6760    1.4030    0.0000 H       1  UNL1        0.0000
     77 H           2.8291    1.1760    0.0000 H       1  UNL1        0.0000
@<TRIPOS>BOND
     1     1     8    1
     2     1     9    1
     3     1    14    1
     4     1    15    1
     5     2     8    1
     6     2    10    1
     7     2    16    1
     8     2    17    1
     9     3     9    1
    10     3    11    1
    11     3    18    1
    12     3    19    1
    13     4    10    1
    14     4    12    1
    15     4    20    1
    16     4    21    1
    17     5    11    1
    18     5    13    1
    19     5    22    1
    20     5    23    1
    21     6    12    1
    22     6    24    1
    23     6    25    1
    24     6    26    1
    25     7    13    1
    26     7    27    1
    27     7    28    1
    28     7    29    1
    29    14    30    1
    30    14    31    1
    31    14    32    1
    32    15    33    1
    33    15    34    1
    34    15    35    1
    35    16    36    1
    36    16    37    1
    37    16    38    1
    38    17    39    1
    39    17    40    1
    40    17    41    1
    41    18    42    1
    42    18    43    1
    43    18    44    1
    44    19    45    1
    45    19    46    1
    46    19    47    1
    47    20    48    1
    48    20    49    1
    49    20    50    1
    50    21    51    1
    51    21    52    1
    52    21    53    1
    53    22    54    1
    54    22    55    1
    55    22    56    1
    56    23    57    1
    57    23    58    1
    58    23    59    1
    59    24    60    1
    60    24    61    1
    61    24    62    1
    62    25    63    1
    63    25    64    1
    64    25    65    1
    65    26    66    1
    66    26    67    1
    67    26    68    1
    68    27    69    1
    69    27    70    1
    70    27    71    1
    71    28    72    1
    72    28    73    1
    73    28    74    1
    74    29    75    1
    75    29    76    1
    76    29    77    1
