@<TRIPOS>MOLECULE
IMPHY008024
 26 25 0 0 0
SMALL
GASTEIGER

@<TRIPOS>ATOM
      1 O           4.5981    0.2500    0.0000 O.3     1  UNL1       -0.4642
      2 O           5.4641   -1.2500    0.0000 O.2     1  UNL1       -0.2506
      3 C           2.8660    0.2500    0.0000 C.3     1  UNL1       -0.0123
      4 C           3.7320   -0.2500    0.0000 C.3     1  UNL1        0.0948
      5 C           6.3301    0.2500    0.0000 C.3     1  UNL1        0.0508
      6 C           2.0000   -0.2500    0.0000 C.3     1  UNL1       -0.0596
      7 C           2.8660    1.2500    0.0000 C.3     1  UNL1       -0.0596
      8 C           5.4641   -0.2500    0.0000 C.2     1  UNL1        0.3097
      9 C           7.1962   -0.2500    0.0000 C.3     1  UNL1       -0.0525
     10 C           6.3301    1.2500    0.0000 C.3     1  UNL1       -0.0525
     11 H           2.8660   -0.3700    0.0000 H       1  UNL1        0.0328
     12 H           3.3335   -0.7249    0.0000 H       1  UNL1        0.0700
     13 H           4.1306   -0.7249    0.0000 H       1  UNL1        0.0700
     14 H           6.8671    0.5600    0.0000 H       1  UNL1        0.0408
     15 H           1.6900    0.2869    0.0000 H       1  UNL1        0.0233
     16 H           1.4631   -0.5600    0.0000 H       1  UNL1        0.0233
     17 H           2.3100   -0.7869    0.0000 H       1  UNL1        0.0233
     18 H           3.4860    1.2500    0.0000 H       1  UNL1        0.0233
     19 H           2.8660    1.8700    0.0000 H       1  UNL1        0.0233
     20 H           2.2460    1.2500    0.0000 H       1  UNL1        0.0233
     21 H           6.8862   -0.7869    0.0000 H       1  UNL1        0.0237
     22 H           7.7331   -0.5600    0.0000 H       1  UNL1        0.0237
     23 H           7.5062    0.2869    0.0000 H       1  UNL1        0.0237
     24 H           6.9501    1.2500    0.0000 H       1  UNL1        0.0237
     25 H           6.3301    1.8700    0.0000 H       1  UNL1        0.0237
     26 H           5.7101    1.2500    0.0000 H       1  UNL1        0.0237
@<TRIPOS>BOND
     1     1     4    1
     2     1     8    1
     3     2     8    2
     4     3     4    1
     5     3     6    1
     6     3     7    1
     7     3    11    1
     8     4    12    1
     9     4    13    1
    10     5     8    1
    11     5     9    1
    12     5    10    1
    13     5    14    1
    14     6    15    1
    15     6    16    1
    16     6    17    1
    17     7    18    1
    18     7    19    1
    19     7    20    1
    20     9    21    1
    21     9    22    1
    22     9    23    1
    23    10    24    1
    24    10    25    1
    25    10    26    1
