@<TRIPOS>MOLECULE
IMPHY001737
 80 85 0 0 0
SMALL
GASTEIGER

@<TRIPOS>ATOM
      1 O          10.9593    2.1001    0.0000 O.3     1  UNL1       -0.3685
      2 O           2.5357   -2.6402    0.0000 O.3     1  UNL1       -0.3912
      3 C           7.3738   -0.9981    0.0000 C.3     1  UNL1       -0.0231
      4 C           8.3092   -0.4484    0.0000 C.3     1  UNL1       -0.0233
      5 C           6.4342   -0.4556    0.0000 C.3     1  UNL1       -0.0294
      6 C           8.3172    0.5932    0.0000 C.3     1  UNL1       -0.0311
      7 C           5.4468   -1.0055    0.0000 C.3     1  UNL1       -0.0252
      8 C           9.2273    1.1001    0.0000 C.3     1  UNL1       -0.0210
      9 C           5.4381   -2.1357    0.0000 C.3     1  UNL1       -0.0278
     10 C          10.0933    0.6001    0.0000 C.3     1  UNL1        0.0157
     11 C           7.3912   -2.1281    0.0000 C.3     1  UNL1       -0.0466
     12 C           6.4425    0.6294    0.0000 C.3     1  UNL1       -0.0489
     13 C           9.2113   -0.9692    0.0000 C.3     1  UNL1       -0.0460
     14 C           7.3904    1.1573    0.0000 C.3     1  UNL1       -0.0491
     15 C           6.4169   -2.7008    0.0000 C.3     1  UNL1       -0.0486
     16 C          10.1093   -0.4414    0.0000 C.3     1  UNL1       -0.0410
     17 C           9.2273    2.1001    0.0000 C.3     1  UNL1       -0.0074
     18 C           4.4232   -2.7321    0.0000 C.3     1  UNL1       -0.0056
     19 C           4.4412   -0.3935    0.0000 C.3     1  UNL1       -0.0447
     20 C           8.0166   -1.7642    0.0000 C.3     1  UNL1       -0.0588
     21 C           8.6441   -1.3906    0.0000 C.3     1  UNL1       -0.0588
     22 C          10.0933    2.6001    0.0000 C.3     1  UNL1        0.0877
     23 C          10.9593    1.1001    0.0000 C.3     1  UNL1        0.0581
     24 C           5.4545   -0.0056    0.0000 C.3     1  UNL1       -0.0590
     25 C           3.4037   -2.1435    0.0000 C.3     1  UNL1        0.0606
     26 C           3.4128   -0.9663    0.0000 C.3     1  UNL1       -0.0258
     27 C           9.6933    1.2001    0.0000 C.2     1  UNL1       -0.0766
     28 C           9.6933    2.0001    0.0000 C.2     1  UNL1       -0.0559
     29 C           8.3612    2.6001    0.0000 C.3     1  UNL1       -0.0592
     30 C           3.9265   -3.6001    0.0000 C.3     1  UNL1       -0.0572
     31 C           4.9265   -3.5962    0.0000 C.3     1  UNL1       -0.0572
     32 C          10.0933    3.6001    0.0000 C.3     1  UNL1       -0.0319
     33 H           7.1719   -0.0335    0.0000 H       1  UNL1        0.0312
     34 H           9.0484    0.1597    0.0000 H       1  UNL1        0.0309
     35 H           8.4911    1.5251    0.0000 H       1  UNL1        0.0316
     36 H           5.4414   -2.9857    0.0000 H       1  UNL1        0.0312
     37 H           7.6092   -2.7085    0.0000 H       1  UNL1        0.0271
     38 H           8.0004   -2.0126    0.0000 H       1  UNL1        0.0271
     39 H           6.2380    1.2146    0.0000 H       1  UNL1        0.0268
     40 H           5.8309    0.5280    0.0000 H       1  UNL1        0.0268
     41 H           8.8140   -1.4452    0.0000 H       1  UNL1        0.0271
     42 H           9.6123   -1.4421    0.0000 H       1  UNL1        0.0271
     43 H           7.7986    1.6240    0.0000 H       1  UNL1        0.0268
     44 H           7.0005    1.6393    0.0000 H       1  UNL1        0.0268
     45 H           6.0196   -3.1767    0.0000 H       1  UNL1        0.0268
     46 H           6.8178   -3.1736    0.0000 H       1  UNL1        0.0268
     47 H          10.3274   -1.0218    0.0000 H       1  UNL1        0.0275
     48 H          10.7185   -0.3259    0.0000 H       1  UNL1        0.0275
     49 H           9.2273    2.7201    0.0000 H       1  UNL1        0.0332
     50 H           4.8494    0.0731    0.0000 H       1  UNL1        0.0271
     51 H           4.0513    0.0885    0.0000 H       1  UNL1        0.0271
     52 H           7.5416   -2.1627    0.0000 H       1  UNL1        0.0235
     53 H           8.4151   -2.2391    0.0000 H       1  UNL1        0.0235
     54 H           8.4915   -1.3656    0.0000 H       1  UNL1        0.0235
     55 H           8.0599   -1.5983    0.0000 H       1  UNL1        0.0235
     56 H           8.8517   -1.9749    0.0000 H       1  UNL1        0.0235
     57 H           9.2283   -1.1830    0.0000 H       1  UNL1        0.0235
     58 H          11.1714    0.5175    0.0000 H       1  UNL1        0.0569
     59 H          11.5699    1.2077    0.0000 H       1  UNL1        0.0569
     60 H           6.0745   -0.0103    0.0000 H       1  UNL1        0.0235
     61 H           5.4593    0.6144    0.0000 H       1  UNL1        0.0235
     62 H           4.8346   -0.0008    0.0000 H       1  UNL1        0.0235
     63 H           3.4025   -2.7635    0.0000 H       1  UNL1        0.0599
     64 H           3.2082   -0.3810    0.0000 H       1  UNL1        0.0290
     65 H           2.8011   -1.0677    0.0000 H       1  UNL1        0.0290
     66 H           9.0999    1.0204    0.0000 H       1  UNL1        0.0576
     67 H           9.0999    2.1797    0.0000 H       1  UNL1        0.0597
     68 H           8.6712    3.1370    0.0000 H       1  UNL1        0.0233
     69 H           7.8243    2.9101    0.0000 H       1  UNL1        0.0233
     70 H           8.0512    2.0631    0.0000 H       1  UNL1        0.0233
     71 H           4.3908   -3.9083    0.0000 H       1  UNL1        0.0236
     72 H           5.2386   -4.1319    0.0000 H       1  UNL1        0.0236
     73 H           3.3884   -3.2921    0.0000 H       1  UNL1        0.0236
     74 H           3.6186   -4.1382    0.0000 H       1  UNL1        0.0236
     75 H           4.4646   -3.9080    0.0000 H       1  UNL1        0.0236
     76 H           5.4622   -3.2841    0.0000 H       1  UNL1        0.0236
     77 H          10.7133    3.6001    0.0000 H       1  UNL1        0.0261
     78 H          10.0933    4.2201    0.0000 H       1  UNL1        0.0261
     79 H           9.4733    3.6001    0.0000 H       1  UNL1        0.0261
     80 H           2.0000   -2.3281    0.0000 H       1  UNL1        0.2098
@<TRIPOS>BOND
     1     1    22    1
     2     1    23    1
     3    25     2    1
     4     2    80    1
     5     3     4    1
     6     3     5    1
     7     3    11    1
     8     3    20    1
     9     4     6    1
    10     4    13    1
    11     4    21    1
    12     5     7    1
    13     5    12    1
    14     5    33    1
    15     6     8    1
    16     6    14    1
    17     6    34    1
    18     7     9    1
    19     7    19    1
    20     7    24    1
    21     8    10    1
    22     8    17    1
    23     8    35    1
    24     9    15    1
    25     9    18    1
    26     9    36    1
    27    10    16    1
    28    10    23    1
    29    10    27    1
    30    11    15    1
    31    11    37    1
    32    11    38    1
    33    12    14    1
    34    12    39    1
    35    12    40    1
    36    13    16    1
    37    13    41    1
    38    13    42    1
    39    14    43    1
    40    14    44    1
    41    15    45    1
    42    15    46    1
    43    16    47    1
    44    16    48    1
    45    17    22    1
    46    17    29    1
    47    17    49    1
    48    18    25    1
    49    18    30    1
    50    18    31    1
    51    19    26    1
    52    19    50    1
    53    19    51    1
    54    20    52    1
    55    20    53    1
    56    20    54    1
    57    21    55    1
    58    21    56    1
    59    21    57    1
    60    22    28    1
    61    22    32    1
    62    23    58    1
    63    23    59    1
    64    24    60    1
    65    24    61    1
    66    24    62    1
    67    25    26    1
    68    25    63    1
    69    26    64    1
    70    26    65    1
    71    27    28    2
    72    27    66    1
    73    28    67    1
    74    29    68    1
    75    29    69    1
    76    29    70    1
    77    30    73    1
    78    30    74    1
    79    30    75    1
    80    31    71    1
    81    31    72    1
    82    31    76    1
    83    32    77    1
    84    32    78    1
    85    32    79    1
