@<TRIPOS>MOLECULE
IMPHY003304
 35 37 0 0 0
SMALL
GASTEIGER

@<TRIPOS>ATOM
      1 O           3.7817    1.4641    0.0000 O.3     1  UNL1       -0.4944
      2 O           2.0000   -1.5946    0.0000 O.3     1  UNL1       -0.4950
      3 O           8.1821    1.9746    0.0000 O.3     1  UNL1       -0.5068
      4 C           5.5301   -1.5705    0.0000 C.3     1  UNL1       -0.0229
      5 C           6.3961   -1.0705    0.0000 C.3     1  UNL1       -0.0230
      6 C           4.6641   -1.0705    0.0000 C.ar    1  UNL1       -0.0324
      7 C           4.6641   -0.0705    0.0000 C.ar    1  UNL1        0.0275
      8 C           6.3961   -0.0705    0.0000 C.ar    1  UNL1       -0.0358
      9 C           5.5301    0.4295    0.0000 C.ar    1  UNL1       -0.0107
     10 C           3.7702    0.4642    0.0000 C.ar    1  UNL1        0.1315
     11 C           3.7702   -1.6051    0.0000 C.ar    1  UNL1       -0.0160
     12 C           7.3062    0.4364    0.0000 C.ar    1  UNL1       -0.0164
     13 C           5.5141    1.4710    0.0000 C.ar    1  UNL1       -0.0502
     14 C           2.8641   -1.0913    0.0000 C.ar    1  UNL1        0.1239
     15 C           2.8641   -0.0497    0.0000 C.ar    1  UNL1        0.0224
     16 C           7.3142    1.4780    0.0000 C.ar    1  UNL1        0.1172
     17 C           6.4121    1.9988    0.0000 C.ar    1  UNL1       -0.0196
     18 C           2.9215    1.9741    0.0000 C.3     1  UNL1        0.0788
     19 C           2.0038   -2.5946    0.0000 C.3     1  UNL1        0.0788
     20 H           5.1316   -2.0454    0.0000 H       1  UNL1        0.0317
     21 H           5.9286   -2.0454    0.0000 H       1  UNL1        0.0317
     22 H           6.6082   -1.6531    0.0000 H       1  UNL1        0.0317
     23 H           7.0067   -0.9628    0.0000 H       1  UNL1        0.0317
     24 H           3.7773   -2.2251    0.0000 H       1  UNL1        0.0657
     25 H           7.8395    0.1202    0.0000 H       1  UNL1        0.0657
     26 H           4.9736    1.7748    0.0000 H       1  UNL1        0.0625
     27 H           2.3284    0.2624    0.0000 H       1  UNL1        0.0691
     28 H           6.4097    2.6188    0.0000 H       1  UNL1        0.0654
     29 H           3.2377    2.5074    0.0000 H       1  UNL1        0.0660
     30 H           2.3882    2.2903    0.0000 H       1  UNL1        0.0660
     31 H           2.6054    1.4408    0.0000 H       1  UNL1        0.0660
     32 H           8.1845    2.5946    0.0000 H       1  UNL1        0.2921
     33 H           1.3839   -2.5970    0.0000 H       1  UNL1        0.0660
     34 H           2.0062   -3.2146    0.0000 H       1  UNL1        0.0660
     35 H           2.6238   -2.5922    0.0000 H       1  UNL1        0.0660
@<TRIPOS>BOND
     1     1    10    1
     2     1    18    1
     3     2    14    1
     4     2    19    1
     5     3    16    1
     6     3    32    1
     7     4     5    1
     8     4     6    1
     9     4    20    1
    10     4    21    1
    11     5     8    1
    12     5    22    1
    13     5    23    1
    14     6     7   ar
    15     6    11   ar
    16     7     9    1
    17     7    10   ar
    18     8     9   ar
    19     8    12   ar
    20     9    13   ar
    21    10    15   ar
    22    11    14   ar
    23    11    24    1
    24    12    16   ar
    25    12    25    1
    26    13    17   ar
    27    13    26    1
    28    14    15   ar
    29    15    27    1
    30    16    17   ar
    31    17    28    1
    32    18    29    1
    33    18    30    1
    34    18    31    1
    35    19    33    1
    36    19    34    1
    37    19    35    1
