@<TRIPOS>MOLECULE
IMPHY000849
 58 61 0 0 0
SMALL
GASTEIGER

@<TRIPOS>ATOM
      1 O           7.7331    1.5779    0.0000 O.3     1  UNL1       -0.3394
      2 O           9.4931    3.6126    0.0000 O.3     1  UNL1       -0.3588
      3 O           9.4931    1.5433    0.0000 O.3     1  UNL1       -0.3458
      4 O           7.7331    4.5779    0.0000 O.3     1  UNL1       -0.3864
      5 O           6.0010    3.5779    0.0000 O.3     1  UNL1       -0.3864
      6 O           6.0010    0.5779    0.0000 O.3     1  UNL1       -0.4589
      7 O          13.8632    3.1121    0.0000 O.3     1  UNL1       -0.5033
      8 O          13.8555    5.1121    0.0000 O.3     1  UNL1       -0.5033
      9 O           4.2690    0.5779    0.0000 O.2     1  UNL1       -0.2456
     10 O           2.5369   -4.4221    0.0000 O.3     1  UNL1       -0.5033
     11 O           4.2690   -5.4221    0.0000 O.3     1  UNL1       -0.5033
     12 C           8.5991    3.0779    0.0000 C.3     1  UNL1        0.1384
     13 C           7.7331    3.5779    0.0000 C.3     1  UNL1        0.1144
     14 C           6.8671    3.0779    0.0000 C.3     1  UNL1        0.1130
     15 C           8.5991    2.0779    0.0000 C.3     1  UNL1        0.1884
     16 C           6.8671    2.0779    0.0000 C.3     1  UNL1        0.1240
     17 C          10.3991    3.0987    0.0000 C.3     1  UNL1        0.1078
     18 C          10.3991    2.0571    0.0000 C.3     1  UNL1        0.0811
     19 C           6.0010    1.5779    0.0000 C.3     1  UNL1        0.1215
     20 C          11.2632    3.6021    0.0000 C.ar    1  UNL1       -0.0130
     21 C          12.1312    3.1054    0.0000 C.ar    1  UNL1       -0.0108
     22 C          11.2594    4.6021    0.0000 C.ar    1  UNL1       -0.0524
     23 C          12.9953    3.6088    0.0000 C.ar    1  UNL1        0.1586
     24 C          12.1235    5.1054    0.0000 C.ar    1  UNL1       -0.0162
     25 C           5.1350    0.0779    0.0000 C.2     1  UNL1        0.3320
     26 C          12.9914    4.6087    0.0000 C.ar    1  UNL1        0.1582
     27 C           5.1350   -0.9221    0.0000 C.2     1  UNL1        0.0231
     28 C           4.2690   -1.4221    0.0000 C.2     1  UNL1       -0.0477
     29 C           4.2690   -2.4221    0.0000 C.ar    1  UNL1       -0.0211
     30 C           3.4030   -2.9221    0.0000 C.ar    1  UNL1       -0.0094
     31 C           5.1350   -2.9221    0.0000 C.ar    1  UNL1       -0.0509
     32 C           3.4030   -3.9221    0.0000 C.ar    1  UNL1        0.1588
     33 C           5.1350   -3.9221    0.0000 C.ar    1  UNL1       -0.0160
     34 C           4.2690   -4.4221    0.0000 C.ar    1  UNL1        0.1582
     35 H           8.5926    3.9279    0.0000 H       1  UNL1        0.0674
     36 H           7.1962    3.8879    0.0000 H       1  UNL1        0.0648
     37 H           6.3301    2.7679    0.0000 H       1  UNL1        0.0647
     38 H           8.5926    1.2280    0.0000 H       1  UNL1        0.0938
     39 H           6.8671    1.4579    0.0000 H       1  UNL1        0.0658
     40 H          10.3955    3.7187    0.0000 H       1  UNL1        0.0670
     41 H          10.6082    1.4734    0.0000 H       1  UNL1        0.0590
     42 H          11.0100    2.1632    0.0000 H       1  UNL1        0.0590
     43 H           5.7890    2.1605    0.0000 H       1  UNL1        0.0725
     44 H           5.3905    1.4703    0.0000 H       1  UNL1        0.0725
     45 H           7.1962    4.8879    0.0000 H       1  UNL1        0.2100
     46 H           5.4641    3.2679    0.0000 H       1  UNL1        0.2100
     47 H          12.1336    2.4854    0.0000 H       1  UNL1        0.0659
     48 H          10.7212    4.9100    0.0000 H       1  UNL1        0.0622
     49 H          12.1211    5.7254    0.0000 H       1  UNL1        0.0655
     50 H           5.6720   -1.2321    0.0000 H       1  UNL1        0.0689
     51 H          13.8656    2.4921    0.0000 H       1  UNL1        0.2923
     52 H          13.8531    5.7321    0.0000 H       1  UNL1        0.2923
     53 H           3.7320   -1.1121    0.0000 H       1  UNL1        0.0626
     54 H           2.8660   -2.6121    0.0000 H       1  UNL1        0.0661
     55 H           5.6720   -2.6121    0.0000 H       1  UNL1        0.0625
     56 H           5.6720   -4.2321    0.0000 H       1  UNL1        0.0655
     57 H           2.0000   -4.1121    0.0000 H       1  UNL1        0.2923
     58 H           4.8059   -5.7321    0.0000 H       1  UNL1        0.2923
@<TRIPOS>BOND
     1     1    15    1
     2     1    16    1
     3     2    12    1
     4     2    17    1
     5     3    15    1
     6     3    18    1
     7    13     4    1
     8     4    45    1
     9    14     5    1
    10     5    46    1
    11     6    19    1
    12     6    25    1
    13     7    23    1
    14     7    51    1
    15     8    26    1
    16     8    52    1
    17     9    25    2
    18    10    32    1
    19    10    57    1
    20    11    34    1
    21    11    58    1
    22    12    13    1
    23    12    15    1
    24    12    35    1
    25    13    14    1
    26    13    36    1
    27    14    16    1
    28    14    37    1
    29    15    38    1
    30    16    19    1
    31    16    39    1
    32    17    18    1
    33    17    20    1
    34    17    40    1
    35    18    41    1
    36    18    42    1
    37    19    43    1
    38    19    44    1
    39    20    21   ar
    40    20    22   ar
    41    21    23   ar
    42    21    47    1
    43    22    24   ar
    44    22    48    1
    45    23    26   ar
    46    24    26   ar
    47    24    49    1
    48    25    27    1
    49    27    28    2
    50    27    50    1
    51    28    29    1
    52    28    53    1
    53    29    30   ar
    54    29    31   ar
    55    30    32   ar
    56    30    54    1
    57    31    33   ar
    58    31    55    1
    59    32    34   ar
    60    33    34   ar
    61    33    56    1
