@<TRIPOS>MOLECULE
IMPHY014015
 52 54 0 0 0
SMALL
GASTEIGER

@<TRIPOS>ATOM
      1 O           6.8671   -1.2327    0.0000 O.3     1  UNL1       -0.4612
      2 O           7.7331    0.2673    0.0000 O.2     1  UNL1       -0.2456
      3 O           4.2690    4.2673    0.0000 O.3     1  UNL1       -0.4914
      4 O           2.5369    3.2673    0.0000 O.3     1  UNL1       -0.5033
      5 N           8.5991   -4.2327    0.0000 N.3     1  UNL1       -0.2990
      6 C           8.5991   -3.2327    0.0000 C.3     1  UNL1        0.0163
      7 C           7.7331   -2.7327    0.0000 C.3     1  UNL1        0.0089
      8 C           9.4931   -2.6980    0.0000 C.3     1  UNL1       -0.0369
      9 C           6.8671   -3.2327    0.0000 C.3     1  UNL1       -0.0445
     10 C           7.7331   -4.7327    0.0000 C.3     1  UNL1       -0.0008
     11 C           9.4931   -4.7673    0.0000 C.3     1  UNL1       -0.0008
     12 C           6.8671   -4.2327    0.0000 C.3     1  UNL1       -0.0398
     13 C          10.3991   -3.2118    0.0000 C.3     1  UNL1       -0.0505
     14 C          10.3991   -4.2535    0.0000 C.3     1  UNL1       -0.0401
     15 C           7.7331   -1.7327    0.0000 C.3     1  UNL1        0.0970
     16 C           6.8671   -0.2327    0.0000 C.2     1  UNL1        0.3320
     17 C           6.0010    0.2673    0.0000 C.2     1  UNL1        0.0231
     18 C           6.0010    1.2673    0.0000 C.2     1  UNL1       -0.0477
     19 C           5.1350    1.7673    0.0000 C.ar    1  UNL1       -0.0211
     20 C           5.1350    2.7673    0.0000 C.ar    1  UNL1       -0.0092
     21 C           4.2690    1.2673    0.0000 C.ar    1  UNL1       -0.0509
     22 C           4.2690    3.2673    0.0000 C.ar    1  UNL1        0.1618
     23 C           3.4030    1.7673    0.0000 C.ar    1  UNL1       -0.0160
     24 C           3.4030    2.7673    0.0000 C.ar    1  UNL1        0.1585
     25 C           5.1350    4.7673    0.0000 C.3     1  UNL1        0.0790
     26 H           8.5926   -2.3827    0.0000 H       1  UNL1        0.0466
     27 H           7.1962   -2.4227    0.0000 H       1  UNL1        0.0349
     28 H           9.8867   -2.2190    0.0000 H       1  UNL1        0.0280
     29 H           9.0885   -2.2282    0.0000 H       1  UNL1        0.0280
     30 H           6.6550   -2.6501    0.0000 H       1  UNL1        0.0270
     31 H           6.2565   -3.3403    0.0000 H       1  UNL1        0.0270
     32 H           7.3346   -5.2076    0.0000 H       1  UNL1        0.0427
     33 H           8.1316   -5.2076    0.0000 H       1  UNL1        0.0427
     34 H           9.0885   -5.2371    0.0000 H       1  UNL1        0.0427
     35 H           9.8867   -5.2463    0.0000 H       1  UNL1        0.0427
     36 H           6.2565   -4.1250    0.0000 H       1  UNL1        0.0278
     37 H           6.6550   -4.8153    0.0000 H       1  UNL1        0.0278
     38 H          11.0100   -3.3180    0.0000 H       1  UNL1        0.0266
     39 H          10.6082   -2.6282    0.0000 H       1  UNL1        0.0266
     40 H          10.6082   -4.8372    0.0000 H       1  UNL1        0.0278
     41 H          11.0100   -4.1474    0.0000 H       1  UNL1        0.0278
     42 H           8.3437   -1.8403    0.0000 H       1  UNL1        0.0701
     43 H           7.9451   -1.1501    0.0000 H       1  UNL1        0.0701
     44 H           5.4641   -0.0427    0.0000 H       1  UNL1        0.0689
     45 H           6.5380    1.5773    0.0000 H       1  UNL1        0.0626
     46 H           5.6720    3.0773    0.0000 H       1  UNL1        0.0661
     47 H           4.2690    0.6473    0.0000 H       1  UNL1        0.0625
     48 H           2.8660    1.4573    0.0000 H       1  UNL1        0.0655
     49 H           2.0000    2.9573    0.0000 H       1  UNL1        0.2923
     50 H           5.4450    4.2304    0.0000 H       1  UNL1        0.0660
     51 H           5.6720    5.0773    0.0000 H       1  UNL1        0.0660
     52 H           4.8250    5.3043    0.0000 H       1  UNL1        0.0660
@<TRIPOS>BOND
     1     1    15    1
     2     1    16    1
     3     2    16    2
     4     3    22    1
     5     3    25    1
     6     4    24    1
     7     4    49    1
     8     5     6    1
     9     5    10    1
    10     5    11    1
    11     6     7    1
    12     6     8    1
    13     6    26    1
    14     7     9    1
    15     7    15    1
    16     7    27    1
    17     8    13    1
    18     8    28    1
    19     8    29    1
    20     9    12    1
    21     9    30    1
    22     9    31    1
    23    10    12    1
    24    10    32    1
    25    10    33    1
    26    11    14    1
    27    11    34    1
    28    11    35    1
    29    12    36    1
    30    12    37    1
    31    13    14    1
    32    13    38    1
    33    13    39    1
    34    14    40    1
    35    14    41    1
    36    15    42    1
    37    15    43    1
    38    16    17    1
    39    17    18    2
    40    17    44    1
    41    18    19    1
    42    18    45    1
    43    19    20   ar
    44    19    21   ar
    45    20    22   ar
    46    20    46    1
    47    21    23   ar
    48    21    47    1
    49    22    24   ar
    50    23    24   ar
    51    23    48    1
    52    25    50    1
    53    25    51    1
    54    25    52    1
