@<TRIPOS>MOLECULE
IMPHY016568
 48 47 0 0 0
SMALL
GASTEIGER

@<TRIPOS>ATOM
      1 O           6.3301    0.0000    0.0000 O.3     1  UNL1       -0.4643
      2 O           7.1962   -1.5000    0.0000 O.2     1  UNL1       -0.2509
      3 C          11.5263   -0.0000    0.0000 C.3     1  UNL1       -0.0531
      4 C          10.6603   -0.5000    0.0000 C.3     1  UNL1       -0.0530
      5 C          12.3923   -0.5000    0.0000 C.3     1  UNL1       -0.0531
      6 C           9.7942    0.0000    0.0000 C.3     1  UNL1       -0.0526
      7 C          13.2583   -0.0000    0.0000 C.3     1  UNL1       -0.0533
      8 C           8.9282   -0.5000    0.0000 C.3     1  UNL1       -0.0430
      9 C          14.1244   -0.5000    0.0000 C.3     1  UNL1       -0.0559
     10 C           8.0622    0.0000    0.0000 C.3     1  UNL1        0.0449
     11 C          14.9904   -0.0000    0.0000 C.3     1  UNL1       -0.0653
     12 C           7.1962   -0.5000    0.0000 C.2     1  UNL1        0.3071
     13 C           5.4641   -0.5000    0.0000 C.3     1  UNL1        0.0959
     14 C           4.5981    0.0000    0.0000 C.3     1  UNL1       -0.0003
     15 C           3.7320   -0.5000    0.0000 C.2     1  UNL1       -0.0847
     16 C           2.8660   -0.0000    0.0000 C.2     1  UNL1       -0.0881
     17 C           2.8660    1.0000    0.0000 C.3     1  UNL1       -0.0376
     18 C           2.0000    1.5000    0.0000 C.3     1  UNL1       -0.0618
     19 H          11.9248    0.4749    0.0000 H       1  UNL1        0.0265
     20 H          11.1278    0.4749    0.0000 H       1  UNL1        0.0265
     21 H          10.2617   -0.9749    0.0000 H       1  UNL1        0.0265
     22 H          11.0588   -0.9749    0.0000 H       1  UNL1        0.0265
     23 H          11.9938   -0.9749    0.0000 H       1  UNL1        0.0265
     24 H          12.7908   -0.9749    0.0000 H       1  UNL1        0.0265
     25 H          10.1928    0.4749    0.0000 H       1  UNL1        0.0265
     26 H           9.3957    0.4749    0.0000 H       1  UNL1        0.0265
     27 H          13.6569    0.4749    0.0000 H       1  UNL1        0.0265
     28 H          12.8598    0.4749    0.0000 H       1  UNL1        0.0265
     29 H           8.5297   -0.9749    0.0000 H       1  UNL1        0.0270
     30 H           9.3267   -0.9749    0.0000 H       1  UNL1        0.0270
     31 H          13.7258   -0.9749    0.0000 H       1  UNL1        0.0263
     32 H          14.5229   -0.9749    0.0000 H       1  UNL1        0.0263
     33 H           8.4607    0.4749    0.0000 H       1  UNL1        0.0377
     34 H           7.6636    0.4749    0.0000 H       1  UNL1        0.0377
     35 H          15.3004   -0.5369    0.0000 H       1  UNL1        0.0230
     36 H          15.5273    0.3100    0.0000 H       1  UNL1        0.0230
     37 H          14.6804    0.5369    0.0000 H       1  UNL1        0.0230
     38 H           5.0656   -0.9749    0.0000 H       1  UNL1        0.0700
     39 H           5.8626   -0.9749    0.0000 H       1  UNL1        0.0700
     40 H           4.9966    0.4749    0.0000 H       1  UNL1        0.0340
     41 H           4.1996    0.4749    0.0000 H       1  UNL1        0.0340
     42 H           3.7320   -1.1200    0.0000 H       1  UNL1        0.0570
     43 H           2.3291   -0.3100    0.0000 H       1  UNL1        0.0569
     44 H           3.4766    0.8923    0.0000 H       1  UNL1        0.0305
     45 H           3.0781    1.5826    0.0000 H       1  UNL1        0.0305
     46 H           2.3100    2.0369    0.0000 H       1  UNL1        0.0233
     47 H           1.4631    1.8100    0.0000 H       1  UNL1        0.0233
     48 H           1.6900    0.9631    0.0000 H       1  UNL1        0.0233
@<TRIPOS>BOND
     1     1    12    1
     2     1    13    1
     3     2    12    2
     4     3     4    1
     5     3     5    1
     6     3    19    1
     7     3    20    1
     8     4     6    1
     9     4    21    1
    10     4    22    1
    11     5     7    1
    12     5    23    1
    13     5    24    1
    14     6     8    1
    15     6    25    1
    16     6    26    1
    17     7     9    1
    18     7    27    1
    19     7    28    1
    20     8    10    1
    21     8    29    1
    22     8    30    1
    23     9    11    1
    24     9    31    1
    25     9    32    1
    26    10    12    1
    27    10    33    1
    28    10    34    1
    29    11    35    1
    30    11    36    1
    31    11    37    1
    32    13    14    1
    33    13    38    1
    34    13    39    1
    35    14    15    1
    36    14    40    1
    37    14    41    1
    38    15    16    2
    39    15    42    1
    40    16    17    1
    41    16    43    1
    42    17    18    1
    43    17    44    1
    44    17    45    1
    45    18    46    1
    46    18    47    1
    47    18    48    1
