@<TRIPOS>MOLECULE
IMPHY010865
 55 57 0 0 0
SMALL
GASTEIGER

@<TRIPOS>ATOM
      1 O           2.3046    0.1591    0.0000 O.3     1  UNL1       -0.4641
      2 O           2.3978   -1.6204    0.0000 O.2     1  UNL1       -0.2505
      3 O           3.0212    3.9956    0.0000 O.3     1  UNL1       -0.4913
      4 O           6.4853    3.9956    0.0000 O.3     1  UNL1       -0.4913
      5 O           4.7533    4.9956    0.0000 O.3     1  UNL1       -0.4885
      6 O           2.2079   -3.7424    0.0000 O.3     1  UNL1       -0.4915
      7 O           3.6942   -5.0807    0.0000 O.3     1  UNL1       -0.5033
      8 C           3.8872    0.4956    0.0000 C.3     1  UNL1        0.0105
      9 C           3.7827   -0.4990    0.0000 C.3     1  UNL1        0.0666
     10 C           2.9737    0.9023    0.0000 C.3     1  UNL1        0.0963
     11 C           4.7533    0.9956    0.0000 C.3     1  UNL1       -0.0208
     12 C           4.5258   -1.1681    0.0000 C.3     1  UNL1       -0.0143
     13 C           2.8046   -0.7069    0.0000 C.2     1  UNL1        0.3109
     14 C           4.7533    1.9956    0.0000 C.ar    1  UNL1       -0.0398
     15 C           4.3179   -2.1463    0.0000 C.ar    1  UNL1       -0.0429
     16 C           5.6193    2.4956    0.0000 C.ar    1  UNL1       -0.0129
     17 C           3.8872    2.4956    0.0000 C.ar    1  UNL1       -0.0129
     18 C           3.3669   -2.4553    0.0000 C.ar    1  UNL1       -0.0131
     19 C           5.0611   -2.8154    0.0000 C.ar    1  UNL1       -0.0549
     20 C           3.8872    3.4956    0.0000 C.ar    1  UNL1        0.1654
     21 C           5.6193    3.4956    0.0000 C.ar    1  UNL1        0.1654
     22 C           4.7533    3.9956    0.0000 C.ar    1  UNL1        0.2035
     23 C           3.1590   -3.4334    0.0000 C.ar    1  UNL1        0.1615
     24 C           4.8532   -3.7935    0.0000 C.ar    1  UNL1       -0.0163
     25 C           3.9021   -4.1025    0.0000 C.ar    1  UNL1        0.1585
     26 C           2.1552    3.4956    0.0000 C.3     1  UNL1        0.0790
     27 C           7.3513    3.4956    0.0000 C.3     1  UNL1        0.0790
     28 C           5.6193    5.4956    0.0000 C.3     1  UNL1        0.0791
     29 C           2.0000   -4.7206    0.0000 C.3     1  UNL1        0.0790
     30 H           4.4072    0.1579    0.0000 H       1  UNL1        0.0345
     31 H           4.3615   -0.2768    0.0000 H       1  UNL1        0.0420
     32 H           3.2837    1.4392    0.0000 H       1  UNL1        0.0700
     33 H           2.4721    1.2667    0.0000 H       1  UNL1        0.0700
     34 H           4.9653    0.4129    0.0000 H       1  UNL1        0.0317
     35 H           5.3638    1.1032    0.0000 H       1  UNL1        0.0317
     36 H           5.1007   -1.4004    0.0000 H       1  UNL1        0.0321
     37 H           4.8544   -0.6423    0.0000 H       1  UNL1        0.0321
     38 H           6.1562    2.1856    0.0000 H       1  UNL1        0.0658
     39 H           3.3503    2.1856    0.0000 H       1  UNL1        0.0658
     40 H           2.9061   -2.0404    0.0000 H       1  UNL1        0.0658
     41 H           5.6507   -2.6238    0.0000 H       1  UNL1        0.0621
     42 H           5.3139   -4.2084    0.0000 H       1  UNL1        0.0655
     43 H           4.1550   -5.4956    0.0000 H       1  UNL1        0.2923
     44 H           1.8452    4.0325    0.0000 H       1  UNL1        0.0660
     45 H           1.6182    3.1856    0.0000 H       1  UNL1        0.0660
     46 H           2.4652    2.9586    0.0000 H       1  UNL1        0.0660
     47 H           7.0413    2.9586    0.0000 H       1  UNL1        0.0660
     48 H           7.8883    3.1856    0.0000 H       1  UNL1        0.0660
     49 H           7.6613    4.0325    0.0000 H       1  UNL1        0.0660
     50 H           5.9293    4.9586    0.0000 H       1  UNL1        0.0660
     51 H           6.1562    5.8056    0.0000 H       1  UNL1        0.0660
     52 H           5.3093    6.0325    0.0000 H       1  UNL1        0.0660
     53 H           1.3936   -4.5917    0.0000 H       1  UNL1        0.0660
     54 H           1.8711   -5.3270    0.0000 H       1  UNL1        0.0660
     55 H           2.6064   -4.8495    0.0000 H       1  UNL1        0.0660
@<TRIPOS>BOND
     1     1    10    1
     2     1    13    1
     3     2    13    2
     4     3    20    1
     5     3    26    1
     6     4    21    1
     7     4    27    1
     8     5    22    1
     9     5    28    1
    10     6    23    1
    11     6    29    1
    12     7    25    1
    13     7    43    1
    14     8     9    1
    15     8    10    1
    16     8    11    1
    17     8    30    1
    18     9    12    1
    19     9    13    1
    20     9    31    1
    21    10    32    1
    22    10    33    1
    23    11    14    1
    24    11    34    1
    25    11    35    1
    26    12    15    1
    27    12    36    1
    28    12    37    1
    29    14    16   ar
    30    14    17   ar
    31    15    18   ar
    32    15    19   ar
    33    16    21   ar
    34    16    38    1
    35    17    20   ar
    36    17    39    1
    37    18    23   ar
    38    18    40    1
    39    19    24   ar
    40    19    41    1
    41    20    22   ar
    42    21    22   ar
    43    23    25   ar
    44    24    25   ar
    45    24    42    1
    46    26    44    1
    47    26    45    1
    48    26    46    1
    49    27    47    1
    50    27    48    1
    51    27    49    1
    52    28    50    1
    53    28    51    1
    54    28    52    1
    55    29    53    1
    56    29    54    1
    57    29    55    1
