@<TRIPOS>MOLECULE
IMPHY006148
 18 18 0 0 0
SMALL
GASTEIGER

@<TRIPOS>ATOM
      1 O           2.8660   -2.0950    0.0000 O.3     1  UNL1       -0.5068
      2 O           2.0000    2.4050    0.0000 O.2     1  UNL1       -0.2924
      3 C           2.8660    0.9050    0.0000 C.ar    1  UNL1        0.0173
      4 C           3.7320    0.4050    0.0000 C.ar    1  UNL1       -0.0478
      5 C           2.0000    0.4050    0.0000 C.ar    1  UNL1       -0.0478
      6 C           2.8660    1.9050    0.0000 C.2     1  UNL1        0.1601
      7 C           3.7320   -0.5950    0.0000 C.ar    1  UNL1       -0.0195
      8 C           2.0000   -0.5950    0.0000 C.ar    1  UNL1       -0.0195
      9 C           2.8660   -1.0950    0.0000 C.ar    1  UNL1        0.1169
     10 C           3.7320    2.4050    0.0000 C.3     1  UNL1       -0.0014
     11 H           4.2690    0.7150    0.0000 H       1  UNL1        0.0626
     12 H           1.4631    0.7150    0.0000 H       1  UNL1        0.0626
     13 H           4.2690   -0.9050    0.0000 H       1  UNL1        0.0654
     14 H           1.4631   -0.9050    0.0000 H       1  UNL1        0.0654
     15 H           4.0420    1.8681    0.0000 H       1  UNL1        0.0309
     16 H           4.2690    2.7150    0.0000 H       1  UNL1        0.0309
     17 H           3.4220    2.9419    0.0000 H       1  UNL1        0.0309
     18 H           2.3291   -2.4050    0.0000 H       1  UNL1        0.2921
@<TRIPOS>BOND
     1     1     9    1
     2     1    18    1
     3     2     6    2
     4     3     4   ar
     5     3     5   ar
     6     3     6    1
     7     4     7   ar
     8     4    11    1
     9     5     8   ar
    10     5    12    1
    11     6    10    1
    12     7     9   ar
    13     7    13    1
    14     8     9   ar
    15     8    14    1
    16    10    15    1
    17    10    16    1
    18    10    17    1
