@<TRIPOS>MOLECULE
IMPHY001888
 27 27 0 0 0
SMALL
GASTEIGER

@<TRIPOS>ATOM
      1 O           3.7320    4.0000    0.0000 O.3     1  UNL1       -0.4518
      2 O           2.8660    5.5000    0.0000 O.2     1  UNL1       -0.2511
      3 C           2.8660   -3.5000    0.0000 C.ar    1  UNL1        0.0259
      4 C           2.0000   -4.0000    0.0000 C.ar    1  UNL1       -0.0463
      5 C           3.7320   -4.0000    0.0000 C.ar    1  UNL1       -0.0463
      6 C           2.0000   -5.0000    0.0000 C.ar    1  UNL1       -0.0606
      7 C           3.7320   -5.0000    0.0000 C.ar    1  UNL1       -0.0606
      8 C           2.8660   -5.5000    0.0000 C.ar    1  UNL1       -0.0617
      9 C           2.8660   -2.5000    0.0000 C.1     1  UNL1       -0.0524
     10 C           2.8660    3.5000    0.0000 C.3     1  UNL1        0.1537
     11 C           3.7320    5.0000    0.0000 C.2     1  UNL1        0.3048
     12 C           4.5981    5.5000    0.0000 C.3     1  UNL1        0.0333
     13 C           2.8660   -1.5000    0.0000 C.1     1  UNL1       -0.0086
     14 C           2.8660    2.5000    0.0000 C.1     1  UNL1       -0.0475
     15 C           2.8660    1.5000    0.0000 C.1     1  UNL1       -0.0105
     16 C           2.8660   -0.5000    0.0000 C.1     1  UNL1       -0.0006
     17 C           2.8660    0.5000    0.0000 C.1     1  UNL1       -0.0009
     18 H           1.4631   -3.6900    0.0000 H       1  UNL1        0.0630
     19 H           4.2690   -3.6900    0.0000 H       1  UNL1        0.0630
     20 H           1.4631   -5.3100    0.0000 H       1  UNL1        0.0618
     21 H           4.2690   -5.3100    0.0000 H       1  UNL1        0.0618
     22 H           2.8660   -6.1200    0.0000 H       1  UNL1        0.0618
     23 H           2.6540    4.0826    0.0000 H       1  UNL1        0.0838
     24 H           2.2554    3.3923    0.0000 H       1  UNL1        0.0838
     25 H           4.9081    4.9631    0.0000 H       1  UNL1        0.0342
     26 H           5.1350    5.8100    0.0000 H       1  UNL1        0.0342
     27 H           4.2881    6.0369    0.0000 H       1  UNL1        0.0342
@<TRIPOS>BOND
     1     1    10    1
     2     1    11    1
     3     2    11    2
     4     3     4   ar
     5     3     5   ar
     6     3     9    1
     7     4     6   ar
     8     4    18    1
     9     5     7   ar
    10     5    19    1
    11     6     8   ar
    12     6    20    1
    13     7     8   ar
    14     7    21    1
    15     8    22    1
    16     9    13    3
    17    10    14    1
    18    10    23    1
    19    10    24    1
    20    11    12    1
    21    12    25    1
    22    12    26    1
    23    12    27    1
    24    13    16    1
    25    14    15    3
    26    15    17    1
    27    16    17    3
