@<TRIPOS>MOLECULE
IMPHY002936
 71 74 0 0 0
SMALL
GASTEIGER

@<TRIPOS>ATOM
      1 O           6.0010    0.4050    0.0000 O.2     1  UNL1       -0.4702
      2 O          10.2629    0.9050    0.0000 O.3     1  UNL1       -0.4554
      3 O           6.8671   -1.0950    0.0000 O.3     1  UNL1       -0.3096
      4 O           8.9900    2.6602    0.0000 O.3     1  UNL1       -0.3875
      5 O           5.1350   -1.0950    0.0000 O.3     1  UNL1       -0.3404
      6 O           6.0010    3.4050    0.0000 O.3     1  UNL1       -0.4646
      7 O           6.8671   -3.0950    0.0000 O.3     1  UNL1       -0.3841
      8 O           7.7331    3.4050    0.0000 O.2     1  UNL1       -0.2452
      9 O           5.1350   -4.0950    0.0000 O.3     1  UNL1       -0.3864
     10 O           3.4030   -3.0950    0.0000 O.3     1  UNL1       -0.3865
     11 O          10.2629    2.6370    0.0000 O.2     1  UNL1       -0.2456
     12 O           2.5369   -1.5950    0.0000 O.3     1  UNL1       -0.3924
     13 O          16.2629    2.6370    0.0000 O.3     1  UNL1       -0.5068
     14 C           7.7331    0.4050    0.0000 C.3     1  UNL1        0.0373
     15 C           7.7331    1.4050    0.0000 C.3     1  UNL1        0.0321
     16 C           8.6793    0.1003    0.0000 C.3     1  UNL1        0.0050
     17 C           9.2629    0.9050    0.0000 C.3     1  UNL1        0.1327
     18 C           8.6793    1.7097    0.0000 C.3     1  UNL1        0.0999
     19 C           6.8671   -0.0950    0.0000 C.3     1  UNL1        0.2073
     20 C           6.8671    1.9050    0.0000 C.2     1  UNL1        0.0768
     21 C           8.9900   -0.8503    0.0000 C.3     1  UNL1       -0.0585
     22 C           6.0010    1.4050    0.0000 C.2     1  UNL1        0.0982
     23 C           6.0010   -1.5950    0.0000 C.3     1  UNL1        0.1918
     24 C           6.8671    2.9050    0.0000 C.2     1  UNL1        0.3382
     25 C           6.0010   -2.5950    0.0000 C.3     1  UNL1        0.1342
     26 C           5.1350   -3.0950    0.0000 C.3     1  UNL1        0.1141
     27 C           4.2690   -2.5950    0.0000 C.3     1  UNL1        0.1119
     28 C           4.2690   -1.5950    0.0000 C.3     1  UNL1        0.1130
     29 C          10.7629    1.7710    0.0000 C.2     1  UNL1        0.3323
     30 C           3.4030   -1.0950    0.0000 C.3     1  UNL1        0.0730
     31 C          11.7629    1.7710    0.0000 C.2     1  UNL1        0.0231
     32 C           6.0010    4.4050    0.0000 C.3     1  UNL1        0.0820
     33 C          12.2629    2.6370    0.0000 C.2     1  UNL1       -0.0478
     34 C          13.2629    2.6370    0.0000 C.ar    1  UNL1       -0.0246
     35 C          13.7629    1.7710    0.0000 C.ar    1  UNL1       -0.0511
     36 C          13.7629    3.5031    0.0000 C.ar    1  UNL1       -0.0511
     37 C          14.7629    1.7710    0.0000 C.ar    1  UNL1       -0.0196
     38 C          14.7629    3.5031    0.0000 C.ar    1  UNL1       -0.0196
     39 C          15.2629    2.6370    0.0000 C.ar    1  UNL1        0.1169
     40 H           7.8230   -0.4402    0.0000 H       1  UNL1        0.0372
     41 H           7.8230    2.2502    0.0000 H       1  UNL1        0.0383
     42 H           8.2418   -0.3391    0.0000 H       1  UNL1        0.0339
     43 H           9.5446    1.4573    0.0000 H       1  UNL1        0.0763
     44 H           8.2418    2.1491    0.0000 H       1  UNL1        0.0636
     45 H           7.4040   -0.4050    0.0000 H       1  UNL1        0.1059
     46 H           8.4006   -1.0429    0.0000 H       1  UNL1        0.0234
     47 H           9.1826   -1.4396    0.0000 H       1  UNL1        0.0234
     48 H           9.5793   -0.6576    0.0000 H       1  UNL1        0.0234
     49 H           5.4641    1.7150    0.0000 H       1  UNL1        0.1029
     50 H           9.5966    2.7881    0.0000 H       1  UNL1        0.2100
     51 H           6.0010   -0.9750    0.0000 H       1  UNL1        0.0939
     52 H           6.0010   -3.2150    0.0000 H       1  UNL1        0.0671
     53 H           4.5981   -3.4050    0.0000 H       1  UNL1        0.0648
     54 H           3.7320   -2.2850    0.0000 H       1  UNL1        0.0647
     55 H           4.2690   -0.9750    0.0000 H       1  UNL1        0.0647
     56 H           3.8015   -0.6201    0.0000 H       1  UNL1        0.0584
     57 H           3.0044   -0.6201    0.0000 H       1  UNL1        0.0584
     58 H           6.8671   -3.7150    0.0000 H       1  UNL1        0.2101
     59 H          12.0729    1.2341    0.0000 H       1  UNL1        0.0689
     60 H           4.5981   -4.4050    0.0000 H       1  UNL1        0.2100
     61 H           3.4030   -3.7150    0.0000 H       1  UNL1        0.2100
     62 H           6.6210    4.4050    0.0000 H       1  UNL1        0.0661
     63 H           6.0010    5.0250    0.0000 H       1  UNL1        0.0661
     64 H           5.3810    4.4050    0.0000 H       1  UNL1        0.0661
     65 H           2.0000   -1.2850    0.0000 H       1  UNL1        0.2095
     66 H          11.9529    3.1740    0.0000 H       1  UNL1        0.0626
     67 H          13.4529    1.2341    0.0000 H       1  UNL1        0.0625
     68 H          13.4529    4.0400    0.0000 H       1  UNL1        0.0625
     69 H          15.0729    1.2341    0.0000 H       1  UNL1        0.0654
     70 H          15.0729    4.0400    0.0000 H       1  UNL1        0.0654
     71 H          16.5729    3.1740    0.0000 H       1  UNL1        0.2921
@<TRIPOS>BOND
     1     1    19    1
     2     1    22    1
     3    17     2    1
     4     2    29    1
     5    19     3    1
     6    23     3    1
     7    18     4    1
     8     4    50    1
     9     5    23    1
    10     5    28    1
    11     6    24    1
    12     6    32    1
    13    25     7    1
    14     7    58    1
    15     8    24    2
    16    26     9    1
    17     9    60    1
    18    27    10    1
    19    10    61    1
    20    11    29    2
    21    12    30    1
    22    12    65    1
    23    13    39    1
    24    13    71    1
    25    14    15    1
    26    14    16    1
    27    14    19    1
    28    14    40    1
    29    15    18    1
    30    15    20    1
    31    15    41    1
    32    16    17    1
    33    16    21    1
    34    16    42    1
    35    17    18    1
    36    17    43    1
    37    18    44    1
    38    19    45    1
    39    20    22    2
    40    20    24    1
    41    21    46    1
    42    21    47    1
    43    21    48    1
    44    22    49    1
    45    23    25    1
    46    23    51    1
    47    25    26    1
    48    25    52    1
    49    26    27    1
    50    26    53    1
    51    27    28    1
    52    27    54    1
    53    28    30    1
    54    28    55    1
    55    29    31    1
    56    30    56    1
    57    30    57    1
    58    31    33    2
    59    31    59    1
    60    32    62    1
    61    32    63    1
    62    32    64    1
    63    33    34    1
    64    33    66    1
    65    34    35   ar
    66    34    36   ar
    67    35    37   ar
    68    35    67    1
    69    36    38   ar
    70    36    68    1
    71    37    39   ar
    72    37    69    1
    73    38    39   ar
    74    38    70    1
