@<TRIPOS>MOLECULE
IMPHY002572
 67 71 0 0 0
SMALL
GASTEIGER

@<TRIPOS>ATOM
      1 O           2.0000   -2.8662    0.0000 O.2     1  UNL1       -0.2971
      2 O          11.0010    2.3305    0.0000 O.2     1  UNL1       -0.5030
      3 O           9.1815    3.3623    0.0000 O.2     1  UNL1       -0.2840
      4 C           5.6610   -0.8139    0.0000 C.3     1  UNL1       -0.0196
      5 C           6.5271   -1.3139    0.0000 C.3     1  UNL1       -0.0043
      6 C           4.7510   -1.3208    0.0000 C.3     1  UNL1       -0.0284
      7 C           4.7430   -2.3624    0.0000 C.3     1  UNL1       -0.0220
      8 C           6.5431   -2.3554    0.0000 C.3     1  UNL1       -0.0429
      9 C           5.6610    0.1861    0.0000 C.3     1  UNL1       -0.0455
     10 C           5.6451   -2.8832    0.0000 C.3     1  UNL1       -0.0462
     11 C           7.3931   -0.8139    0.0000 C.2     1  UNL1       -0.0529
     12 C           7.3931    0.1861    0.0000 C.3     1  UNL1        0.0154
     13 C           3.8242   -0.7567    0.0000 C.3     1  UNL1       -0.0399
     14 C           6.5271    0.6861    0.0000 C.3     1  UNL1       -0.0393
     15 C           3.8076   -2.9121    0.0000 C.3     1  UNL1        0.0118
     16 C           4.7950   -0.3139    0.0000 C.3     1  UNL1       -0.0585
     17 C           7.3931   -1.8139    0.0000 C.3     1  UNL1       -0.0553
     18 C           2.8763   -1.2846    0.0000 C.3     1  UNL1        0.0150
     19 C           4.7353   -3.3623    0.0000 C.3     1  UNL1       -0.0589
     20 C           2.8680   -2.3696    0.0000 C.2     1  UNL1        0.1367
     21 C           8.2870    0.7208    0.0000 C.2     1  UNL1       -0.0262
     22 C           8.2870   -1.3486    0.0000 C.2     1  UNL1       -0.0606
     23 C           7.3931    1.1861    0.0000 C.3     1  UNL1       -0.0517
     24 C           2.0161   -0.7746    0.0000 C.3     1  UNL1       -0.0557
     25 C           9.1931    0.2069    0.0000 C.2     1  UNL1       -0.0144
     26 C           9.1931   -0.8347    0.0000 C.2     1  UNL1       -0.0539
     27 C           8.2619    1.8055    0.0000 C.2     1  UNL1       -0.0067
     28 C          10.1369    0.7422    0.0000 C.2     1  UNL1        0.0022
     29 C           9.1931    2.3624    0.0000 C.2     1  UNL1        0.2206
     30 C          10.1369    1.8272    0.0000 C.2     1  UNL1        0.1671
     31 C          11.0010    0.2388    0.0000 C.3     1  UNL1       -0.0356
     32 H           5.4822   -1.7542    0.0000 H       1  UNL1        0.0312
     33 H           6.7612   -2.9358    0.0000 H       1  UNL1        0.0274
     34 H           7.1523   -2.2399    0.0000 H       1  UNL1        0.0274
     35 H           5.4490    0.7687    0.0000 H       1  UNL1        0.0271
     36 H           5.0504    0.0784    0.0000 H       1  UNL1        0.0271
     37 H           5.2478   -3.3591    0.0000 H       1  UNL1        0.0271
     38 H           6.0460   -3.3561    0.0000 H       1  UNL1        0.0271
     39 H           4.2324   -0.2900    0.0000 H       1  UNL1        0.0275
     40 H           3.4343   -0.2746    0.0000 H       1  UNL1        0.0275
     41 H           6.9256    1.1610    0.0000 H       1  UNL1        0.0277
     42 H           6.1285    1.1610    0.0000 H       1  UNL1        0.0277
     43 H           3.4103   -3.3880    0.0000 H       1  UNL1        0.0347
     44 H           4.2085   -3.3850    0.0000 H       1  UNL1        0.0347
     45 H           5.1050    0.2230    0.0000 H       1  UNL1        0.0235
     46 H           4.2581   -0.0039    0.0000 H       1  UNL1        0.0235
     47 H           4.4850   -0.8508    0.0000 H       1  UNL1        0.0235
     48 H           7.0831   -2.3508    0.0000 H       1  UNL1        0.0238
     49 H           7.9300   -2.1239    0.0000 H       1  UNL1        0.0238
     50 H           7.7031   -1.2770    0.0000 H       1  UNL1        0.0238
     51 H           2.8847   -0.6647    0.0000 H       1  UNL1        0.0375
     52 H           4.1153   -3.3575    0.0000 H       1  UNL1        0.0235
     53 H           4.7305   -3.9823    0.0000 H       1  UNL1        0.0235
     54 H           5.3553   -3.3671    0.0000 H       1  UNL1        0.0235
     55 H           8.2799   -1.9685    0.0000 H       1  UNL1        0.0618
     56 H           8.0131    1.1861    0.0000 H       1  UNL1        0.0241
     57 H           7.3931    1.8061    0.0000 H       1  UNL1        0.0241
     58 H           6.7731    1.1861    0.0000 H       1  UNL1        0.0241
     59 H           2.3323   -0.2413    0.0000 H       1  UNL1        0.0236
     60 H           1.4828   -0.4584    0.0000 H       1  UNL1        0.0236
     61 H           1.6999   -1.3080    0.0000 H       1  UNL1        0.0236
     62 H           9.7288   -1.1468    0.0000 H       1  UNL1        0.0624
     63 H           7.7191    2.1051    0.0000 H       1  UNL1        0.0660
     64 H          10.6889   -0.2969    0.0000 H       1  UNL1        0.0279
     65 H          11.5367   -0.0732    0.0000 H       1  UNL1        0.0279
     66 H          11.3130    0.7746    0.0000 H       1  UNL1        0.0279
     67 H          10.9986    2.9505    0.0000 H       1  UNL1        0.2923
@<TRIPOS>BOND
     1     1    20    2
     2     2    30    1
     3     2    67    1
     4     3    29    2
     5     4     5    1
     6     4     6    1
     7     4     9    1
     8     4    16    1
     9     5     8    1
    10     5    11    1
    11     5    17    1
    12     6     7    1
    13     6    13    1
    14     6    32    1
    15     7    10    1
    16     7    15    1
    17     7    19    1
    18     8    10    1
    19     8    33    1
    20     8    34    1
    21     9    14    1
    22     9    35    1
    23     9    36    1
    24    10    37    1
    25    10    38    1
    26    11    12    1
    27    11    22    2
    28    12    14    1
    29    12    21    1
    30    12    23    1
    31    13    18    1
    32    13    39    1
    33    13    40    1
    34    14    41    1
    35    14    42    1
    36    15    20    1
    37    15    43    1
    38    15    44    1
    39    16    45    1
    40    16    46    1
    41    16    47    1
    42    17    48    1
    43    17    49    1
    44    17    50    1
    45    18    20    1
    46    18    24    1
    47    18    51    1
    48    19    52    1
    49    19    53    1
    50    19    54    1
    51    21    25    1
    52    21    27    2
    53    22    26    1
    54    22    55    1
    55    23    56    1
    56    23    57    1
    57    23    58    1
    58    24    59    1
    59    24    60    1
    60    24    61    1
    61    25    26    2
    62    25    28    1
    63    26    62    1
    64    27    29    1
    65    27    63    1
    66    28    30    2
    67    28    31    1
    68    29    30    1
    69    31    64    1
    70    31    65    1
    71    31    66    1
