@<TRIPOS>MOLECULE
IMPHY016906
 81 84 0 0 0
SMALL
GASTEIGER

@<TRIPOS>ATOM
      1 O           2.5357   -3.7639    0.0000 O.3     1  UNL1       -0.3912
      2 O          10.4749    1.7004    0.0000 O.3     1  UNL1       -0.4804
      3 O          10.8321    0.0056    0.0000 O.2     1  UNL1       -0.2507
      4 C           7.9288   -0.7115    0.0000 C.3     1  UNL1       -0.0191
      5 C           7.9288   -1.7115    0.0000 C.3     1  UNL1       -0.0051
      6 C           8.8750   -0.4068    0.0000 C.3     1  UNL1       -0.0219
      7 C           5.2868   -2.2184    0.0000 C.3     1  UNL1       -0.0073
      8 C           7.0628   -2.2115    0.0000 C.2     1  UNL1       -0.0633
      9 C           5.2787   -3.2600    0.0000 C.3     1  UNL1       -0.0242
     10 C           6.1968   -1.7115    0.0000 C.2     1  UNL1       -0.0636
     11 C           8.8750   -2.0163    0.0000 C.3     1  UNL1       -0.0431
     12 C           7.0628   -0.2115    0.0000 C.3     1  UNL1       -0.0428
     13 C           9.4586   -1.2115    0.0000 C.3     1  UNL1       -0.0481
     14 C           6.1968   -0.7115    0.0000 C.3     1  UNL1       -0.0304
     15 C           4.3433   -3.8097    0.0000 C.3     1  UNL1       -0.0053
     16 C           7.0789   -3.2530    0.0000 C.3     1  UNL1       -0.0306
     17 C           6.1808   -3.7808    0.0000 C.3     1  UNL1       -0.0451
     18 C           4.3599   -1.6543    0.0000 C.3     1  UNL1       -0.0413
     19 C           7.9288    0.2885    0.0000 C.3     1  UNL1       -0.0585
     20 C           7.9288   -2.7115    0.0000 C.3     1  UNL1       -0.0553
     21 C           9.1857    0.5437    0.0000 C.3     1  UNL1        0.0599
     22 C           3.4037   -3.2672    0.0000 C.3     1  UNL1        0.0607
     23 C           3.4120   -2.1822    0.0000 C.3     1  UNL1       -0.0256
     24 C           5.2945   -1.2184    0.0000 C.3     1  UNL1       -0.0556
     25 C           3.8467   -4.6777    0.0000 C.3     1  UNL1       -0.0572
     26 C           4.8466   -4.6738    0.0000 C.3     1  UNL1       -0.0572
     27 C           8.5179    1.2880    0.0000 C.3     1  UNL1       -0.0364
     28 C          10.1642    0.7499    0.0000 C.2     1  UNL1        0.3081
     29 C           8.8285    2.2385    0.0000 C.3     1  UNL1       -0.0338
     30 C           8.1607    2.9828    0.0000 C.2     1  UNL1       -0.0853
     31 C           8.4713    3.9334    0.0000 C.2     1  UNL1       -0.0796
     32 C           7.8035    4.6777    0.0000 C.3     1  UNL1       -0.0440
     33 C           9.4498    4.1396    0.0000 C.3     1  UNL1       -0.0440
     34 H           9.4875   -0.3106    0.0000 H       1  UNL1        0.0314
     35 H           5.2820   -4.1100    0.0000 H       1  UNL1        0.0315
     36 H           8.6240   -2.5832    0.0000 H       1  UNL1        0.0274
     37 H           9.4124   -2.3255    0.0000 H       1  UNL1        0.0274
     38 H           7.4613    0.2634    0.0000 H       1  UNL1        0.0274
     39 H           6.6643    0.2634    0.0000 H       1  UNL1        0.0274
     40 H           9.9195   -1.6263    0.0000 H       1  UNL1        0.0269
     41 H           9.9195   -0.7968    0.0000 H       1  UNL1        0.0269
     42 H           5.9847   -0.1289    0.0000 H       1  UNL1        0.0310
     43 H           5.5862   -0.8192    0.0000 H       1  UNL1        0.0310
     44 H           7.2969   -3.8334    0.0000 H       1  UNL1        0.0310
     45 H           7.6880   -3.1376    0.0000 H       1  UNL1        0.0310
     46 H           5.7835   -4.2568    0.0000 H       1  UNL1        0.0271
     47 H           6.5818   -4.2537    0.0000 H       1  UNL1        0.0271
     48 H           4.7681   -1.1877    0.0000 H       1  UNL1        0.0274
     49 H           3.9700   -1.1723    0.0000 H       1  UNL1        0.0274
     50 H           8.5488    0.2885    0.0000 H       1  UNL1        0.0235
     51 H           7.9288    0.9085    0.0000 H       1  UNL1        0.0235
     52 H           7.3088    0.2885    0.0000 H       1  UNL1        0.0235
     53 H           7.3088   -2.7115    0.0000 H       1  UNL1        0.0238
     54 H           7.9288   -3.3315    0.0000 H       1  UNL1        0.0238
     55 H           8.5488   -2.7115    0.0000 H       1  UNL1        0.0238
     56 H           9.3783    1.1330    0.0000 H       1  UNL1        0.0416
     57 H           2.8686   -2.9541    0.0000 H       1  UNL1        0.0599
     58 H           3.2075   -1.5970    0.0000 H       1  UNL1        0.0290
     59 H           2.8004   -2.2836    0.0000 H       1  UNL1        0.0290
     60 H           5.9145   -1.2232    0.0000 H       1  UNL1        0.0238
     61 H           5.2993   -0.5984    0.0000 H       1  UNL1        0.0238
     62 H           4.6745   -1.2136    0.0000 H       1  UNL1        0.0238
     63 H           3.3085   -4.3697    0.0000 H       1  UNL1        0.0236
     64 H           3.5387   -5.2158    0.0000 H       1  UNL1        0.0236
     65 H           4.3848   -4.9856    0.0000 H       1  UNL1        0.0236
     66 H           4.3109   -4.9859    0.0000 H       1  UNL1        0.0236
     67 H           5.1587   -5.2095    0.0000 H       1  UNL1        0.0236
     68 H           5.3824   -4.3617    0.0000 H       1  UNL1        0.0236
     69 H           7.9709    1.5800    0.0000 H       1  UNL1        0.0276
     70 H           8.1353    0.8001    0.0000 H       1  UNL1        0.0276
     71 H           2.0000   -3.4518    0.0000 H       1  UNL1        0.2098
     72 H           9.3754    1.9465    0.0000 H       1  UNL1        0.0308
     73 H           9.2111    2.7264    0.0000 H       1  UNL1        0.0308
     74 H          11.0815    1.8283    0.0000 H       1  UNL1        0.2951
     75 H           7.5540    2.8550    0.0000 H       1  UNL1        0.0571
     76 H           8.2650    5.0917    0.0000 H       1  UNL1        0.0274
     77 H           7.3894    5.1391    0.0000 H       1  UNL1        0.0274
     78 H           7.3420    4.2636    0.0000 H       1  UNL1        0.0274
     79 H           9.5777    3.5329    0.0000 H       1  UNL1        0.0274
     80 H          10.0565    4.2674    0.0000 H       1  UNL1        0.0274
     81 H           9.3220    4.7462    0.0000 H       1  UNL1        0.0274
@<TRIPOS>BOND
     1     1    22    1
     2     1    71    1
     3     2    28    1
     4     2    74    1
     5     3    28    2
     6     4     5    1
     7     4     6    1
     8     4    12    1
     9     4    19    1
    10     5     8    1
    11     5    11    1
    12     5    20    1
    13     6    13    1
    14     6    21    1
    15     6    34    1
    16     7     9    1
    17     7    10    1
    18     7    18    1
    19     7    24    1
    20     8    10    2
    21     8    16    1
    22     9    15    1
    23     9    17    1
    24     9    35    1
    25    10    14    1
    26    11    13    1
    27    11    36    1
    28    11    37    1
    29    12    14    1
    30    12    38    1
    31    12    39    1
    32    13    40    1
    33    13    41    1
    34    14    42    1
    35    14    43    1
    36    15    22    1
    37    15    25    1
    38    15    26    1
    39    16    17    1
    40    16    44    1
    41    16    45    1
    42    17    46    1
    43    17    47    1
    44    18    23    1
    45    18    48    1
    46    18    49    1
    47    19    50    1
    48    19    51    1
    49    19    52    1
    50    20    53    1
    51    20    54    1
    52    20    55    1
    53    21    27    1
    54    21    28    1
    55    21    56    1
    56    22    23    1
    57    22    57    1
    58    23    58    1
    59    23    59    1
    60    24    60    1
    61    24    61    1
    62    24    62    1
    63    25    63    1
    64    25    64    1
    65    25    65    1
    66    26    66    1
    67    26    67    1
    68    26    68    1
    69    27    29    1
    70    27    69    1
    71    27    70    1
    72    29    30    1
    73    29    72    1
    74    29    73    1
    75    30    31    2
    76    30    75    1
    77    31    32    1
    78    31    33    1
    79    32    76    1
    80    32    77    1
    81    32    78    1
    82    33    79    1
    83    33    80    1
    84    33    81    1
