@<TRIPOS>MOLECULE
IMPHY002852
 99 105 0 0 0
SMALL
GASTEIGER

@<TRIPOS>ATOM
      1 O           7.1011   -1.4015    0.0000 O.3     1  UNL1       -0.3289
      2 O           7.6692   -1.2958    0.0000 O.3     1  UNL1       -0.4515
      3 O           8.4615    1.3621    0.0000 O.3     1  UNL1       -0.4512
      4 O           9.6358   -0.5669    0.0000 O.3     1  UNL1       -0.3818
      5 O           8.6100   -2.2412    0.0000 O.3     1  UNL1       -0.4287
      6 O           4.8566    0.3961    0.0000 O.3     1  UNL1       -0.4584
      7 O           6.6481   -5.1163    0.0000 O.3     1  UNL1       -0.4454
      8 O           7.6692   -3.0278    0.0000 O.2     1  UNL1       -0.2453
      9 O           9.0687    2.8280    0.0000 O.2     1  UNL1       -0.2449
     10 O          10.1099   -1.3752    0.0000 O.2     1  UNL1       -0.2449
     11 O           4.1664   -2.1617    0.0000 O.3     1  UNL1       -0.5030
     12 O           3.5978    1.3621    0.0000 O.2     1  UNL1       -0.2449
     13 O           8.1483   -5.2451    0.0000 O.3     1  UNL1       -0.4780
     14 O           5.5344   -6.4430    0.0000 O.2     1  UNL1       -0.2449
     15 O           8.4494   -3.5394    0.0000 O.2     1  UNL1       -0.2468
     16 O           2.5835   -2.8511    0.0000 O.3     1  UNL1       -0.5009
     17 O           5.3334    4.7079    0.0000 O.3     1  UNL1       -0.5028
     18 O           2.2274   -4.8682    0.0000 O.3     1  UNL1       -0.5032
     19 O           5.8926    4.8577    0.0000 O.3     1  UNL1       -0.5028
     20 O           8.6914    5.4727    0.0000 O.3     1  UNL1       -0.5032
     21 O           6.7128    6.0029    0.0000 O.3     1  UNL1       -0.5009
     22 O           4.5974   -0.3610    0.0000 O.3     1  UNL1       -0.4775
     23 O           4.0505    5.2895    0.0000 O.3     1  UNL1       -0.5009
     24 O           2.6022    3.8412    0.0000 O.3     1  UNL1       -0.5032
     25 O           5.9634    0.0051    0.0000 O.2     1  UNL1       -0.2458
     26 O          12.6099   -3.9732    0.0000 O.3     1  UNL1       -0.5032
     27 O           9.6100   -5.7053    0.0000 O.3     1  UNL1       -0.5032
     28 O          11.6099   -5.7053    0.0000 O.3     1  UNL1       -0.5009
     29 C           7.4956   -0.3110    0.0000 C.3     1  UNL1        0.1719
     30 C           8.2026    0.3961    0.0000 C.3     1  UNL1        0.1741
     31 C           6.5296   -0.5698    0.0000 C.3     1  UNL1        0.1371
     32 C           8.6372   -0.5147    0.0000 C.3     1  UNL1        0.1576
     33 C           8.1100   -1.3752    0.0000 C.3     1  UNL1        0.2352
     34 C           5.5637   -0.3110    0.0000 C.3     1  UNL1        0.1226
     35 C           6.0559   -3.4886    0.0000 C.3     1  UNL1        0.0681
     36 C           7.1693   -2.1618    0.0000 C.2     1  UNL1        0.3366
     37 C           6.2295   -2.5038    0.0000 C.2     1  UNL1        0.0549
     38 C           8.2026    2.3280    0.0000 C.2     1  UNL1        0.3405
     39 C           6.8218   -4.1316    0.0000 C.3     1  UNL1        0.2100
     40 C           5.1160   -3.8305    0.0000 C.ar    1  UNL1        0.0236
     41 C           7.4956    3.0351    0.0000 C.ar    1  UNL1        0.0740
     42 C           9.6100   -2.2412    0.0000 C.2     1  UNL1        0.3417
     43 C           4.9422   -4.8153    0.0000 C.ar    1  UNL1        0.0700
     44 C           4.5978    1.3621    0.0000 C.2     1  UNL1        0.3401
     45 C           6.5296    3.2939    0.0000 C.ar    1  UNL1        0.0458
     46 C           5.4634   -1.8610    0.0000 C.2     1  UNL1        0.0330
     47 C           4.3284   -3.1484    0.0000 C.ar    1  UNL1        0.1667
     48 C           4.8566    2.3280    0.0000 C.ar    1  UNL1        0.0740
     49 C           5.5637    3.0351    0.0000 C.ar    1  UNL1        0.0458
     50 C           5.7082   -5.4582    0.0000 C.2     1  UNL1        0.3405
     51 C           7.8065   -4.3053    0.0000 C.2     1  UNL1        0.3470
     52 C           3.9689   -5.1864    0.0000 C.ar    1  UNL1       -0.0020
     53 C           8.2434    3.7602    0.0000 C.ar    1  UNL1       -0.0017
     54 C          10.1099   -3.1072    0.0000 C.ar    1  UNL1        0.0662
     55 C           3.3468   -3.4969    0.0000 C.ar    1  UNL1        0.2009
     56 C           6.2446    4.2958    0.0000 C.ar    1  UNL1        0.1708
     57 C           3.1658   -4.5228    0.0000 C.ar    1  UNL1        0.1628
     58 C           5.3096    4.0453    0.0000 C.ar    1  UNL1        0.1708
     59 C           3.8464    2.5820    0.0000 C.ar    1  UNL1       -0.0017
     60 C           7.9815    4.7684    0.0000 C.ar    1  UNL1        0.1628
     61 C           6.9754    5.0380    0.0000 C.ar    1  UNL1        0.2012
     62 C           5.4634   -0.8610    0.0000 C.2     1  UNL1        0.3301
     63 C           4.3056    4.3226    0.0000 C.ar    1  UNL1        0.2012
     64 C           3.5691    3.5861    0.0000 C.ar    1  UNL1        0.1628
     65 C           9.6100   -3.9732    0.0000 C.ar    1  UNL1       -0.0023
     66 C          11.1099   -3.1072    0.0000 C.ar    1  UNL1       -0.0023
     67 C          11.6099   -3.9732    0.0000 C.ar    1  UNL1        0.1628
     68 C          10.1099   -4.8392    0.0000 C.ar    1  UNL1        0.1628
     69 C          11.1099   -4.8392    0.0000 C.ar    1  UNL1        0.2006
     70 H           8.0868   -0.4974    0.0000 H       1  UNL1        0.0800
     71 H           7.4665    0.8211    0.0000 H       1  UNL1        0.0801
     72 H           6.0390   -1.2639    0.0000 H       1  UNL1        0.0670
     73 H           8.9259   -1.0634    0.0000 H       1  UNL1        0.0695
     74 H           7.8070   -1.9161    0.0000 H       1  UNL1        0.1086
     75 H           5.0018   -0.5730    0.0000 H       1  UNL1        0.0725
     76 H           5.8737    0.2260    0.0000 H       1  UNL1        0.0725
     77 H           9.9735   -0.0469    0.0000 H       1  UNL1        0.2102
     78 H           6.6385   -3.2766    0.0000 H       1  UNL1        0.0443
     79 H           7.1774   -4.6395    0.0000 H       1  UNL1        0.0863
     80 H           4.8808   -2.0730    0.0000 H       1  UNL1        0.0694
     81 H           3.8681   -5.7982    0.0000 H       1  UNL1        0.0663
     82 H           8.8403    3.5928    0.0000 H       1  UNL1        0.0664
     83 H           3.4131    2.1386    0.0000 H       1  UNL1        0.0664
     84 H           8.9900   -3.9732    0.0000 H       1  UNL1        0.0663
     85 H          11.4199   -2.5703    0.0000 H       1  UNL1        0.0663
     86 H           3.5864   -1.9428    0.0000 H       1  UNL1        0.2923
     87 H           7.7497   -5.7200    0.0000 H       1  UNL1        0.2952
     88 H           2.0000   -3.0608    0.0000 H       1  UNL1        0.2924
     89 H           5.0649    5.2667    0.0000 H       1  UNL1        0.2923
     90 H           2.1220   -5.4792    0.0000 H       1  UNL1        0.2923
     91 H           5.8458    5.4760    0.0000 H       1  UNL1        0.2923
     92 H           9.2896    5.3100    0.0000 H       1  UNL1        0.2923
     93 H           7.1496    6.4430    0.0000 H       1  UNL1        0.2924
     94 H           4.0605   -0.6709    0.0000 H       1  UNL1        0.2954
     95 H           3.4523    5.4523    0.0000 H       1  UNL1        0.2924
     96 H           2.1654    3.4011    0.0000 H       1  UNL1        0.2923
     97 H          12.9199   -3.4363    0.0000 H       1  UNL1        0.2923
     98 H           9.9200   -6.2422    0.0000 H       1  UNL1        0.2923
     99 H          12.2299   -5.7053    0.0000 H       1  UNL1        0.2924
@<TRIPOS>BOND
     1     1    31    1
     2     1    33    1
     3    29     2    1
     4     2    36    1
     5     3    30    1
     6     3    38    1
     7    32     4    1
     8     4    77    1
     9    33     5    1
    10     5    42    1
    11     6    34    1
    12     6    44    1
    13     7    39    1
    14     7    50    1
    15     8    36    2
    16     9    38    2
    17    10    42    2
    18    11    47    1
    19    11    86    1
    20    12    44    2
    21    13    51    1
    22    13    87    1
    23    14    50    2
    24    15    51    2
    25    16    55    1
    26    16    88    1
    27    17    56    1
    28    17    89    1
    29    18    57    1
    30    18    90    1
    31    19    58    1
    32    19    91    1
    33    20    60    1
    34    20    92    1
    35    21    61    1
    36    21    93    1
    37    22    62    1
    38    22    94    1
    39    23    63    1
    40    23    95    1
    41    24    64    1
    42    24    96    1
    43    25    62    2
    44    26    67    1
    45    26    97    1
    46    27    68    1
    47    27    98    1
    48    28    69    1
    49    28    99    1
    50    29    30    1
    51    29    31    1
    52    29    70    1
    53    30    32    1
    54    30    71    1
    55    31    34    1
    56    31    72    1
    57    32    33    1
    58    32    73    1
    59    33    74    1
    60    34    75    1
    61    34    76    1
    62    35    37    1
    63    35    39    1
    64    35    40    1
    65    35    78    1
    66    36    37    1
    67    37    46    2
    68    38    41    1
    69    39    51    1
    70    39    79    1
    71    40    43   ar
    72    40    47   ar
    73    41    45   ar
    74    41    53   ar
    75    42    54    1
    76    43    50    1
    77    43    52   ar
    78    44    48    1
    79    45    49    1
    80    45    56   ar
    81    46    62    1
    82    46    80    1
    83    47    55   ar
    84    48    49   ar
    85    48    59   ar
    86    49    58   ar
    87    52    57   ar
    88    52    81    1
    89    53    60   ar
    90    53    82    1
    91    54    65   ar
    92    54    66   ar
    93    55    57   ar
    94    56    61   ar
    95    58    63   ar
    96    59    64   ar
    97    59    83    1
    98    60    61   ar
    99    63    64   ar
   100    65    68   ar
   101    65    84    1
   102    66    67   ar
   103    66    85    1
   104    67    69   ar
   105    68    69   ar
