@<TRIPOS>MOLECULE
IMPHY015618
 31 30 0 0 0
SMALL
GASTEIGER

@<TRIPOS>ATOM
      1 O           2.5369   -0.4330    0.0000 O.3     1  UNL1       -0.3891
      2 C           4.2690    0.5670    0.0000 C.3     1  UNL1       -0.0245
      3 C           3.4030    0.0670    0.0000 C.3     1  UNL1        0.0605
      4 C           5.1350    0.0670    0.0000 C.3     1  UNL1       -0.0500
      5 C           6.0010    0.5670    0.0000 C.3     1  UNL1       -0.0469
      6 C           6.8671    0.0670    0.0000 C.3     1  UNL1       -0.0260
      7 C           2.9030    0.9330    0.0000 C.3     1  UNL1       -0.0363
      8 C           3.9030   -0.7990    0.0000 C.3     1  UNL1       -0.0363
      9 C           6.8671   -0.9330    0.0000 C.3     1  UNL1       -0.0590
     10 C           7.7331    0.5670    0.0000 C.2     1  UNL1       -0.0883
     11 C           8.5991    0.0670    0.0000 C.2     1  UNL1       -0.1024
     12 H           4.6675    1.0419    0.0000 H       1  UNL1        0.0293
     13 H           3.8705    1.0419    0.0000 H       1  UNL1        0.0293
     14 H           4.7365   -0.4080    0.0000 H       1  UNL1        0.0266
     15 H           5.5335   -0.4080    0.0000 H       1  UNL1        0.0266
     16 H           6.3996    1.0419    0.0000 H       1  UNL1        0.0271
     17 H           5.6025    1.0419    0.0000 H       1  UNL1        0.0271
     18 H           6.3301   -0.2430    0.0000 H       1  UNL1        0.0340
     19 H           3.4399    1.2430    0.0000 H       1  UNL1        0.0257
     20 H           2.5930    1.4700    0.0000 H       1  UNL1        0.0257
     21 H           2.3660    0.6230    0.0000 H       1  UNL1        0.0257
     22 H           3.3660   -1.1090    0.0000 H       1  UNL1        0.0257
     23 H           4.2130   -1.3360    0.0000 H       1  UNL1        0.0257
     24 H           4.4399   -0.4890    0.0000 H       1  UNL1        0.0257
     25 H           6.2471   -0.9330    0.0000 H       1  UNL1        0.0235
     26 H           6.8671   -1.5530    0.0000 H       1  UNL1        0.0235
     27 H           7.4871   -0.9330    0.0000 H       1  UNL1        0.0235
     28 H           7.7331    1.1870    0.0000 H       1  UNL1        0.0569
     29 H           2.0000   -0.1230    0.0000 H       1  UNL1        0.2101
     30 H           8.5991   -0.5530    0.0000 H       1  UNL1        0.0532
     31 H           9.1360    0.3770    0.0000 H       1  UNL1        0.0532
@<TRIPOS>BOND
     1     1     3    1
     2     1    29    1
     3     2     3    1
     4     2     4    1
     5     2    12    1
     6     2    13    1
     7     3     7    1
     8     3     8    1
     9     4     5    1
    10     4    14    1
    11     4    15    1
    12     5     6    1
    13     5    16    1
    14     5    17    1
    15     6     9    1
    16     6    10    1
    17     6    18    1
    18     7    19    1
    19     7    20    1
    20     7    21    1
    21     8    22    1
    22     8    23    1
    23     8    24    1
    24     9    25    1
    25     9    26    1
    26     9    27    1
    27    10    11    2
    28    10    28    1
    29    11    30    1
    30    11    31    1
