@<TRIPOS>MOLECULE
IMPHY016302
 34 35 0 0 0
SMALL
GASTEIGER

@<TRIPOS>ATOM
      1 C           4.5981   -0.5000    0.0000 C.3     1  UNL1       -0.0379
      2 C           4.5981    0.5000    0.0000 C.3     1  UNL1       -0.0379
      3 C           3.7320   -1.0000    0.0000 C.3     1  UNL1       -0.0471
      4 C           3.7320    1.0000    0.0000 C.3     1  UNL1       -0.0471
      5 C           2.8660   -0.5000    0.0000 C.3     1  UNL1       -0.0410
      6 C           2.8660    0.5000    0.0000 C.3     1  UNL1       -0.0410
      7 C           5.4920   -1.0347    0.0000 C.3     1  UNL1       -0.0499
      8 C           5.4920    1.0347    0.0000 C.3     1  UNL1       -0.0499
      9 C           6.3981   -0.5208    0.0000 C.3     1  UNL1       -0.0528
     10 C           6.3981    0.5208    0.0000 C.3     1  UNL1       -0.0528
     11 C           2.0000   -1.0000    0.0000 C.3     1  UNL1       -0.0622
     12 C           2.0000    1.0000    0.0000 C.3     1  UNL1       -0.0622
     13 H           4.5933   -1.1200    0.0000 H       1  UNL1        0.0304
     14 H           4.5933    1.1200    0.0000 H       1  UNL1        0.0304
     15 H           3.3335   -1.4750    0.0000 H       1  UNL1        0.0271
     16 H           4.1306   -1.4750    0.0000 H       1  UNL1        0.0271
     17 H           4.1306    1.4750    0.0000 H       1  UNL1        0.0271
     18 H           3.3335    1.4750    0.0000 H       1  UNL1        0.0271
     19 H           2.8660   -1.1200    0.0000 H       1  UNL1        0.0301
     20 H           2.8660    1.1200    0.0000 H       1  UNL1        0.0301
     21 H           5.0874   -1.5044    0.0000 H       1  UNL1        0.0268
     22 H           5.8856   -1.5137    0.0000 H       1  UNL1        0.0268
     23 H           5.8856    1.5137    0.0000 H       1  UNL1        0.0268
     24 H           5.0874    1.5044    0.0000 H       1  UNL1        0.0268
     25 H           6.6071   -1.1045    0.0000 H       1  UNL1        0.0265
     26 H           7.0089   -0.4147    0.0000 H       1  UNL1        0.0265
     27 H           7.0089    0.4147    0.0000 H       1  UNL1        0.0265
     28 H           6.6071    1.1045    0.0000 H       1  UNL1        0.0265
     29 H           1.6900   -0.4631    0.0000 H       1  UNL1        0.0233
     30 H           1.4631   -1.3100    0.0000 H       1  UNL1        0.0233
     31 H           2.3100   -1.5369    0.0000 H       1  UNL1        0.0233
     32 H           2.3100    1.5369    0.0000 H       1  UNL1        0.0233
     33 H           1.4631    1.3100    0.0000 H       1  UNL1        0.0233
     34 H           1.6900    0.4631    0.0000 H       1  UNL1        0.0233
@<TRIPOS>BOND
     1     1     2    1
     2     1     3    1
     3     1     7    1
     4     1    13    1
     5     2     4    1
     6     2     8    1
     7     2    14    1
     8     3     5    1
     9     3    15    1
    10     3    16    1
    11     4     6    1
    12     4    17    1
    13     4    18    1
    14     5     6    1
    15     5    11    1
    16     5    19    1
    17     6    12    1
    18     6    20    1
    19     7     9    1
    20     7    21    1
    21     7    22    1
    22     8    10    1
    23     8    23    1
    24     8    24    1
    25     9    10    1
    26     9    25    1
    27     9    26    1
    28    10    27    1
    29    10    28    1
    30    11    29    1
    31    11    30    1
    32    11    31    1
    33    12    32    1
    34    12    33    1
    35    12    34    1
