@<TRIPOS>MOLECULE
IMPHY004870
 44 47 0 0 0
SMALL
GASTEIGER

@<TRIPOS>ATOM
      1 O           9.9404    1.8768    0.0000 O.3     1  UNL1       -0.4854
      2 O          12.5241    1.0721    0.0000 O.3     1  UNL1       -0.3855
      3 O           5.5301   -1.4279    0.0000 O.2     1  UNL1       -0.4618
      4 O           5.5301    1.5721    0.0000 O.2     1  UNL1       -0.2863
      5 O           3.7817    1.6067    0.0000 O.3     1  UNL1       -0.5058
      6 O           2.0000   -1.4521    0.0000 O.3     1  UNL1       -0.5065
      7 C          10.5241    1.0721    0.0000 C.3     1  UNL1        0.1322
      8 C          11.5241    1.0721    0.0000 C.3     1  UNL1        0.0974
      9 C           9.9404    0.2673    0.0000 C.3     1  UNL1        0.0157
     10 C           8.9942    0.5721    0.0000 C.ar    1  UNL1       -0.0015
     11 C           8.9942    1.5721    0.0000 C.ar    1  UNL1        0.1244
     12 C          11.5241    2.0721    0.0000 C.3     1  UNL1       -0.0328
     13 C          11.5241    0.0721    0.0000 C.3     1  UNL1       -0.0328
     14 C           8.1282    0.0721    0.0000 C.ar    1  UNL1       -0.0470
     15 C           7.2622    0.5721    0.0000 C.ar    1  UNL1       -0.0108
     16 C           8.1282    2.0721    0.0000 C.ar    1  UNL1       -0.0191
     17 C           7.2622    1.5721    0.0000 C.ar    1  UNL1       -0.0503
     18 C           6.3961    0.0721    0.0000 C.ar    1  UNL1        0.0644
     19 C           5.5301    0.5721    0.0000 C.ar    1  UNL1        0.2037
     20 C           4.6641    0.0721    0.0000 C.ar    1  UNL1        0.1060
     21 C           6.3961   -0.9279    0.0000 C.ar    1  UNL1        0.1038
     22 C           4.6641   -0.9279    0.0000 C.ar    1  UNL1        0.1454
     23 C           3.7702    0.6067    0.0000 C.ar    1  UNL1        0.1347
     24 C           3.7702   -1.4626    0.0000 C.ar    1  UNL1        0.0231
     25 C           2.8641    0.0929    0.0000 C.ar    1  UNL1        0.0223
     26 C           2.8641   -0.9487    0.0000 C.ar    1  UNL1        0.1239
     27 H          10.8058    1.6244    0.0000 H       1  UNL1        0.0765
     28 H           9.6894   -0.2996    0.0000 H       1  UNL1        0.0351
     29 H          10.4778   -0.0419    0.0000 H       1  UNL1        0.0351
     30 H          12.1441    2.0721    0.0000 H       1  UNL1        0.0258
     31 H          11.5241    2.6921    0.0000 H       1  UNL1        0.0258
     32 H          10.9041    2.0721    0.0000 H       1  UNL1        0.0258
     33 H          10.9041    0.0721    0.0000 H       1  UNL1        0.0258
     34 H          11.5241   -0.5479    0.0000 H       1  UNL1        0.0258
     35 H          12.1441    0.0721    0.0000 H       1  UNL1        0.0258
     36 H           8.1282   -0.5479    0.0000 H       1  UNL1        0.0628
     37 H           8.1282    2.6921    0.0000 H       1  UNL1        0.0654
     38 H          12.8341    1.6090    0.0000 H       1  UNL1        0.2103
     39 H           6.7252    1.8821    0.0000 H       1  UNL1        0.0625
     40 H           6.9331   -1.2379    0.0000 H       1  UNL1        0.1037
     41 H           3.7773   -2.0826    0.0000 H       1  UNL1        0.0691
     42 H           2.3284    0.4050    0.0000 H       1  UNL1        0.0691
     43 H           3.2484    1.9229    0.0000 H       1  UNL1        0.2922
     44 H           2.0024   -2.0721    0.0000 H       1  UNL1        0.2921
@<TRIPOS>BOND
     1     1     7    1
     2     1    11    1
     3     2     8    1
     4     2    38    1
     5     3    21   ar
     6     3    22   ar
     7     4    19    2
     8     5    23    1
     9     5    43    1
    10     6    26    1
    11     6    44    1
    12     7     8    1
    13     7     9    1
    14     7    27    1
    15     8    12    1
    16     8    13    1
    17     9    10    1
    18     9    28    1
    19     9    29    1
    20    10    11   ar
    21    10    14   ar
    22    11    16   ar
    23    12    30    1
    24    12    31    1
    25    12    32    1
    26    13    33    1
    27    13    34    1
    28    13    35    1
    29    14    15   ar
    30    14    36    1
    31    15    17   ar
    32    15    18    1
    33    16    17   ar
    34    16    37    1
    35    17    39    1
    36    18    19   ar
    37    18    21   ar
    38    19    20   ar
    39    20    22   ar
    40    20    23   ar
    41    21    40    1
    42    22    24   ar
    43    23    25   ar
    44    24    26   ar
    45    24    41    1
    46    25    26   ar
    47    25    42    1
