@<TRIPOS>MOLECULE
IMPHY002251
 83 86 0 0 0
SMALL
GASTEIGER

@<TRIPOS>ATOM
      1 O           3.7585    0.3551    0.0000 O.3     1  UNL1       -0.3673
      2 O           7.5829    4.9661    0.0000 O.2     1  UNL1       -0.2968
      3 O           3.9756   -2.0421    0.0000 O.3     1  UNL1       -0.3863
      4 C           4.0649    1.9210    0.0000 C.3     1  UNL1       -0.0233
      5 C           4.0649    2.9210    0.0000 C.3     1  UNL1       -0.0296
      6 C           4.9309    3.4210    0.0000 C.3     1  UNL1       -0.0246
      7 C           3.1187    1.6163    0.0000 C.3     1  UNL1       -0.0064
      8 C           5.7969    2.9210    0.0000 C.3     1  UNL1       -0.0235
      9 C           4.9309    1.4210    0.0000 C.3     1  UNL1       -0.0467
     10 C           3.1187    3.2258    0.0000 C.3     1  UNL1       -0.0488
     11 C           2.5350    2.4210    0.0000 C.3     1  UNL1       -0.0468
     12 C           5.7969    1.9210    0.0000 C.3     1  UNL1       -0.0483
     13 C           2.8080    0.6658    0.0000 C.3     1  UNL1        0.0706
     14 C           6.7069    3.4279    0.0000 C.3     1  UNL1        0.0267
     15 C           4.9149    4.4625    0.0000 C.3     1  UNL1       -0.0404
     16 C           4.0649    0.9210    0.0000 C.3     1  UNL1       -0.0589
     17 C           4.0649    3.9210    0.0000 C.3     1  UNL1       -0.0590
     18 C           5.8129    4.9903    0.0000 C.3     1  UNL1        0.0069
     19 C           2.2188   -0.1422    0.0000 C.3     1  UNL1       -0.0213
     20 C           6.7150    4.4695    0.0000 C.2     1  UNL1        0.1392
     21 C           2.0000    1.2550    0.0000 C.3     1  UNL1       -0.0355
     22 C           7.7069    3.4163    0.0000 C.3     1  UNL1       -0.0528
     23 C           7.1969    2.5561    0.0000 C.3     1  UNL1       -0.0528
     24 C           3.7568   -0.6449    0.0000 C.3     1  UNL1        0.0878
     25 C           2.8052   -0.9522    0.0000 C.3     1  UNL1       -0.0213
     26 C           4.5648   -1.2341    0.0000 C.3     1  UNL1        0.0896
     27 C           5.3728   -1.8232    0.0000 C.3     1  UNL1       -0.0184
     28 C           5.1540   -0.4261    0.0000 C.3     1  UNL1       -0.0336
     29 C           5.2665   -2.8176    0.0000 C.3     1  UNL1       -0.0319
     30 C           6.0745   -3.4068    0.0000 C.2     1  UNL1       -0.0852
     31 C           5.9683   -4.4011    0.0000 C.2     1  UNL1       -0.0796
     32 C           6.7763   -4.9903    0.0000 C.3     1  UNL1       -0.0440
     33 C           5.0540   -4.8063    0.0000 C.3     1  UNL1       -0.0440
     34 H           4.8010    2.4960    0.0000 H       1  UNL1        0.0311
     35 H           2.2790    1.4844    0.0000 H       1  UNL1        0.0334
     36 H           6.5298    2.4904    0.0000 H       1  UNL1        0.0315
     37 H           4.5324    0.9461    0.0000 H       1  UNL1        0.0271
     38 H           5.3294    0.9461    0.0000 H       1  UNL1        0.0271
     39 H           3.3697    3.7927    0.0000 H       1  UNL1        0.0268
     40 H           2.5813    3.5350    0.0000 H       1  UNL1        0.0268
     41 H           2.0742    2.8358    0.0000 H       1  UNL1        0.0269
     42 H           2.0742    2.0063    0.0000 H       1  UNL1        0.0269
     43 H           6.0090    1.3384    0.0000 H       1  UNL1        0.0269
     44 H           6.4075    2.0287    0.0000 H       1  UNL1        0.0269
     45 H           4.6968    5.0429    0.0000 H       1  UNL1        0.0275
     46 H           4.3057    4.3470    0.0000 H       1  UNL1        0.0275
     47 H           3.4449    0.9210    0.0000 H       1  UNL1        0.0235
     48 H           4.0649    0.3010    0.0000 H       1  UNL1        0.0235
     49 H           4.6849    0.9210    0.0000 H       1  UNL1        0.0235
     50 H           4.3749    4.4580    0.0000 H       1  UNL1        0.0235
     51 H           3.5280    4.2310    0.0000 H       1  UNL1        0.0235
     52 H           3.7549    3.3841    0.0000 H       1  UNL1        0.0235
     53 H           6.2102    5.4663    0.0000 H       1  UNL1        0.0342
     54 H           5.4119    5.4632    0.0000 H       1  UNL1        0.0342
     55 H           1.7588    0.2734    0.0000 H       1  UNL1        0.0294
     56 H           1.7574   -0.5563    0.0000 H       1  UNL1        0.0294
     57 H           2.3653    1.7559    0.0000 H       1  UNL1        0.0257
     58 H           1.4990    1.6203    0.0000 H       1  UNL1        0.0257
     59 H           1.6347    0.7540    0.0000 H       1  UNL1        0.0257
     60 H           6.6564    2.2524    0.0000 H       1  UNL1        0.0239
     61 H           7.5007    2.0156    0.0000 H       1  UNL1        0.0239
     62 H           7.7374    2.8599    0.0000 H       1  UNL1        0.0239
     63 H           7.6997    2.7964    0.0000 H       1  UNL1        0.0239
     64 H           8.3268    3.4092    0.0000 H       1  UNL1        0.0239
     65 H           7.7140    4.0363    0.0000 H       1  UNL1        0.0239
     66 H           4.5148   -0.2603    0.0000 H       1  UNL1        0.0625
     67 H           2.2677   -1.2613    0.0000 H       1  UNL1        0.0292
     68 H           3.0564   -1.5191    0.0000 H       1  UNL1        0.0292
     69 H           5.9685   -1.9952    0.0000 H       1  UNL1        0.0297
     70 H           5.6455   -1.2665    0.0000 H       1  UNL1        0.0297
     71 H           5.6549   -0.7914    0.0000 H       1  UNL1        0.0258
     72 H           5.5193    0.0749    0.0000 H       1  UNL1        0.0258
     73 H           4.6530   -0.0608    0.0000 H       1  UNL1        0.0258
     74 H           4.2268   -2.6089    0.0000 H       1  UNL1        0.2103
     75 H           4.6708   -2.6457    0.0000 H       1  UNL1        0.0308
     76 H           4.9938   -3.3744    0.0000 H       1  UNL1        0.0308
     77 H           6.6414   -3.1556    0.0000 H       1  UNL1        0.0571
     78 H           4.8028   -4.2394    0.0000 H       1  UNL1        0.0274
     79 H           4.4872   -5.0575    0.0000 H       1  UNL1        0.0274
     80 H           6.4110   -5.4912    0.0000 H       1  UNL1        0.0274
     81 H           5.3052   -5.3731    0.0000 H       1  UNL1        0.0274
     82 H           7.2772   -5.3556    0.0000 H       1  UNL1        0.0274
     83 H           7.1416   -4.4893    0.0000 H       1  UNL1        0.0274
@<TRIPOS>BOND
     1     1    13    1
     2     1    24    1
     3     2    20    2
     4    26     3    1
     5     3    74    1
     6     4     5    1
     7     4     7    1
     8     4     9    1
     9     4    16    1
    10     5     6    1
    11     5    10    1
    12     5    34    1
    13     6     8    1
    14     6    15    1
    15     6    17    1
    16     7    11    1
    17     7    13    1
    18     7    35    1
    19     8    12    1
    20     8    14    1
    21     8    36    1
    22     9    12    1
    23     9    37    1
    24     9    38    1
    25    10    11    1
    26    10    39    1
    27    10    40    1
    28    11    41    1
    29    11    42    1
    30    12    43    1
    31    12    44    1
    32    13    19    1
    33    13    21    1
    34    14    20    1
    35    14    22    1
    36    14    23    1
    37    15    18    1
    38    15    45    1
    39    15    46    1
    40    16    47    1
    41    16    48    1
    42    16    49    1
    43    17    50    1
    44    17    51    1
    45    17    52    1
    46    18    20    1
    47    18    53    1
    48    18    54    1
    49    19    25    1
    50    19    55    1
    51    19    56    1
    52    21    57    1
    53    21    58    1
    54    21    59    1
    55    22    63    1
    56    22    64    1
    57    22    65    1
    58    23    60    1
    59    23    61    1
    60    23    62    1
    61    24    25    1
    62    24    26    1
    63    24    66    1
    64    25    67    1
    65    25    68    1
    66    26    27    1
    67    26    28    1
    68    27    29    1
    69    27    69    1
    70    27    70    1
    71    28    71    1
    72    28    72    1
    73    28    73    1
    74    29    30    1
    75    29    75    1
    76    29    76    1
    77    30    31    2
    78    30    77    1
    79    31    32    1
    80    31    33    1
    81    32    80    1
    82    32    82    1
    83    32    83    1
    84    33    78    1
    85    33    79    1
    86    33    81    1
