@<TRIPOS>MOLECULE
IMPHY006320
 125 131 0 0 0
SMALL
GASTEIGER

@<TRIPOS>ATOM
      1 O           7.1962   -5.0496    0.0000 O.3     1  UNL1       -0.3449
      2 O           8.9500    4.2298    0.0000 O.3     1  UNL1       -0.4318
      3 O           9.8333    2.7400    0.0000 O.2     1  UNL1       -0.2501
      4 O           5.4641   -5.0496    0.0000 O.3     1  UNL1       -0.3315
      5 O           9.7986    5.7398    0.0000 O.3     1  UNL1       -0.3312
      6 O           7.1962   -7.0496    0.0000 O.3     1  UNL1       -0.3841
      7 O           5.4641   -8.0496    0.0000 O.3     1  UNL1       -0.3864
      8 O           3.7320   -7.0496    0.0000 O.3     1  UNL1       -0.3860
      9 O          10.6935    3.2499    0.0000 O.3     1  UNL1       -0.3829
     10 O          12.4138    4.2699    0.0000 O.3     1  UNL1       -0.3864
     11 O          12.3907    6.2698    0.0000 O.3     1  UNL1       -0.3865
     12 O           2.8660   -5.5496    0.0000 O.3     1  UNL1       -0.4661
     13 O           3.7320   -4.0496    0.0000 O.2     1  UNL1       -0.2478
     14 O           9.7754    7.7396    0.0000 O.3     1  UNL1       -0.3924
     15 C           8.0972   -0.3494    0.0000 C.3     1  UNL1       -0.0194
     16 C           7.2331   -0.8527    0.0000 C.3     1  UNL1       -0.0257
     17 C           7.2211   -1.8943    0.0000 C.3     1  UNL1       -0.0250
     18 C           8.0934    0.6506    0.0000 C.3     1  UNL1       -0.0051
     19 C           8.1211   -2.4186    0.0000 C.3     1  UNL1       -0.0278
     20 C           9.0092   -0.8527    0.0000 C.3     1  UNL1       -0.0463
     21 C           9.0212   -1.8943    0.0000 C.3     1  UNL1       -0.0486
     22 C           8.1337   -3.5035    0.0000 C.3     1  UNL1       -0.0052
     23 C           7.2254    1.1473    0.0000 C.2     1  UNL1       -0.0629
     24 C           7.2053    2.1887    0.0000 C.3     1  UNL1       -0.0031
     25 C           6.3652   -0.3560    0.0000 C.3     1  UNL1       -0.0306
     26 C           6.2712   -2.4186    0.0000 C.3     1  UNL1       -0.0447
     27 C           9.0014    1.1610    0.0000 C.3     1  UNL1       -0.0424
     28 C           8.1013    2.7199    0.0000 C.3     1  UNL1        0.0744
     29 C           9.0813   -0.1719    0.0000 C.3     1  UNL1       -0.0585
     30 C           7.1962   -4.0496    0.0000 C.3     1  UNL1        0.0672
     31 C           9.0054    2.2026    0.0000 C.3     1  UNL1       -0.0359
     32 C           6.3570   -1.3909    0.0000 C.3     1  UNL1       -0.0590
     33 C           6.3613    0.6440    0.0000 C.2     1  UNL1       -0.0836
     34 C           6.2586   -3.5035    0.0000 C.3     1  UNL1       -0.0255
     35 C           9.0788    0.4808    0.0000 C.3     1  UNL1       -0.0553
     36 C           6.2514    2.7057    0.0000 C.3     1  UNL1       -0.0403
     37 C           8.1055    3.8049    0.0000 C.3     1  UNL1       -0.0362
     38 C           6.2305    3.7905    0.0000 C.3     1  UNL1       -0.0343
     39 C           9.1337   -3.4958    0.0000 C.3     1  UNL1       -0.0572
     40 C           8.6404   -4.3656    0.0000 C.3     1  UNL1       -0.0572
     41 C           7.1638    4.3438    0.0000 C.3     1  UNL1       -0.0468
     42 C           8.9615    3.2299    0.0000 C.2     1  UNL1        0.3161
     43 C           5.7172    4.6487    0.0000 C.3     1  UNL1       -0.0598
     44 C           5.2306    3.7750    0.0000 C.3     1  UNL1       -0.0598
     45 C           6.3301   -5.5496    0.0000 C.3     1  UNL1        0.1888
     46 C           6.3301   -6.5496    0.0000 C.3     1  UNL1        0.1341
     47 C           9.8101    4.7398    0.0000 C.3     1  UNL1        0.2337
     48 C           5.4641   -7.0496    0.0000 C.3     1  UNL1        0.1145
     49 C           4.5981   -5.5496    0.0000 C.3     1  UNL1        0.1861
     50 C           4.5981   -6.5496    0.0000 C.3     1  UNL1        0.1202
     51 C          10.6819    4.2499    0.0000 C.3     1  UNL1        0.1455
     52 C          11.5421    4.7599    0.0000 C.3     1  UNL1        0.1152
     53 C          10.6588    6.2497    0.0000 C.3     1  UNL1        0.1140
     54 C          11.5305    5.7598    0.0000 C.3     1  UNL1        0.1120
     55 C           3.7320   -5.0496    0.0000 C.2     1  UNL1        0.3388
     56 C          10.6472    7.2497    0.0000 C.3     1  UNL1        0.0731
     57 C           2.0000   -5.0496    0.0000 C.3     1  UNL1        0.0817
     58 H           7.9676   -1.2805    0.0000 H       1  UNL1        0.0315
     59 H           8.8605   -2.8379    0.0000 H       1  UNL1        0.0312
     60 H           9.6212   -0.9517    0.0000 H       1  UNL1        0.0271
     61 H           9.2114   -0.2666    0.0000 H       1  UNL1        0.0271
     62 H           9.2370   -2.4755    0.0000 H       1  UNL1        0.0268
     63 H           9.6308   -1.7811    0.0000 H       1  UNL1        0.0268
     64 H           6.4792    1.7468    0.0000 H       1  UNL1        0.0357
     65 H           5.7542   -0.2507    0.0000 H       1  UNL1        0.0310
     66 H           6.1554   -0.9395    0.0000 H       1  UNL1        0.0310
     67 H           6.0689   -1.8325    0.0000 H       1  UNL1        0.0271
     68 H           5.6591   -2.5176    0.0000 H       1  UNL1        0.0271
     69 H           9.2082    0.5765    0.0000 H       1  UNL1        0.0274
     70 H           9.6127    1.2647    0.0000 H       1  UNL1        0.0274
     71 H           9.1914   -0.7821    0.0000 H       1  UNL1        0.0235
     72 H           9.6915   -0.0619    0.0000 H       1  UNL1        0.0235
     73 H           8.9713    0.4382    0.0000 H       1  UNL1        0.0235
     74 H           7.7337   -4.3586    0.0000 H       1  UNL1        0.0602
     75 H           9.6159    2.0942    0.0000 H       1  UNL1        0.0276
     76 H           9.2167    2.7855    0.0000 H       1  UNL1        0.0276
     77 H           6.6690   -0.8552    0.0000 H       1  UNL1        0.0235
     78 H           5.8212   -1.0789    0.0000 H       1  UNL1        0.0235
     79 H           6.0449   -1.9267    0.0000 H       1  UNL1        0.0235
     80 H           5.8232    0.9519    0.0000 H       1  UNL1        0.0572
     81 H           5.6490   -3.3903    0.0000 H       1  UNL1        0.0290
     82 H           6.0428   -4.0847    0.0000 H       1  UNL1        0.0290
     83 H           8.9735   -0.1302    0.0000 H       1  UNL1        0.0238
     84 H           9.6898    0.3755    0.0000 H       1  UNL1        0.0238
     85 H           9.1841    1.0918    0.0000 H       1  UNL1        0.0238
     86 H           5.6386    2.8000    0.0000 H       1  UNL1        0.0276
     87 H           6.0536    2.1181    0.0000 H       1  UNL1        0.0276
     88 H           8.7160    3.6965    0.0000 H       1  UNL1        0.0276
     89 H           8.3168    4.3878    0.0000 H       1  UNL1        0.0276
     90 H           9.1384   -4.1157    0.0000 H       1  UNL1        0.0236
     91 H           9.7536   -3.4910    0.0000 H       1  UNL1        0.0236
     92 H           9.1289   -2.8758    0.0000 H       1  UNL1        0.0236
     93 H           8.1058   -4.6798    0.0000 H       1  UNL1        0.0236
     94 H           8.9545   -4.9002    0.0000 H       1  UNL1        0.0236
     95 H           9.1749   -4.0515    0.0000 H       1  UNL1        0.0236
     96 H           7.5593    4.8213    0.0000 H       1  UNL1        0.0271
     97 H           6.7610    4.8151    0.0000 H       1  UNL1        0.0271
     98 H           6.2493    4.9669    0.0000 H       1  UNL1        0.0235
     99 H           5.3990    5.1808    0.0000 H       1  UNL1        0.0235
    100 H           5.2211    4.3950    0.0000 H       1  UNL1        0.0235
    101 H           4.6107    3.7655    0.0000 H       1  UNL1        0.0235
    102 H           5.2402    3.1551    0.0000 H       1  UNL1        0.0235
    103 H           5.1851    4.3304    0.0000 H       1  UNL1        0.0235
    104 H           6.3301   -4.9296    0.0000 H       1  UNL1        0.0938
    105 H           6.3301   -7.1696    0.0000 H       1  UNL1        0.0671
    106 H           9.2697    5.0436    0.0000 H       1  UNL1        0.1085
    107 H           4.9272   -7.3596    0.0000 H       1  UNL1        0.0648
    108 H           4.5981   -4.9296    0.0000 H       1  UNL1        0.0741
    109 H           4.0611   -6.2396    0.0000 H       1  UNL1        0.0652
    110 H          10.1486    3.9337    0.0000 H       1  UNL1        0.0683
    111 H           7.7331   -6.7396    0.0000 H       1  UNL1        0.2101
    112 H          12.0754    5.0761    0.0000 H       1  UNL1        0.0648
    113 H          10.1183    6.5535    0.0000 H       1  UNL1        0.0647
    114 H          11.5233    6.3797    0.0000 H       1  UNL1        0.0647
    115 H           6.0010   -8.3596    0.0000 H       1  UNL1        0.2100
    116 H           3.7320   -7.6696    0.0000 H       1  UNL1        0.2100
    117 H          11.2339    2.9462    0.0000 H       1  UNL1        0.2102
    118 H          11.2590    7.1491    0.0000 H       1  UNL1        0.0584
    119 H          10.8525    7.8347    0.0000 H       1  UNL1        0.0584
    120 H          12.9471    4.5861    0.0000 H       1  UNL1        0.2100
    121 H          12.3835    6.8897    0.0000 H       1  UNL1        0.2100
    122 H           9.7683    8.3596    0.0000 H       1  UNL1        0.2095
    123 H           2.3100   -4.5126    0.0000 H       1  UNL1        0.0661
    124 H           1.4631   -4.7396    0.0000 H       1  UNL1        0.0661
    125 H           1.6900   -5.5865    0.0000 H       1  UNL1        0.0661
@<TRIPOS>BOND
     1    30     1    1
     2    45     1    1
     3     2    42    1
     4    47     2    1
     5     3    42    2
     6     4    45    1
     7     4    49    1
     8     5    47    1
     9     5    53    1
    10    46     6    1
    11     6   111    1
    12    48     7    1
    13     7   115    1
    14    50     8    1
    15     8   116    1
    16    51     9    1
    17     9   117    1
    18    52    10    1
    19    10   120    1
    20    54    11    1
    21    11   121    1
    22    12    55    1
    23    12    57    1
    24    13    55    2
    25    14    56    1
    26    14   122    1
    27    15    16    1
    28    15    18    1
    29    15    20    1
    30    15    29    1
    31    16    17    1
    32    16    25    1
    33    16    58    1
    34    17    19    1
    35    17    26    1
    36    17    32    1
    37    18    23    1
    38    18    27    1
    39    18    35    1
    40    19    21    1
    41    19    22    1
    42    19    59    1
    43    20    21    1
    44    20    60    1
    45    20    61    1
    46    21    62    1
    47    21    63    1
    48    22    30    1
    49    22    39    1
    50    22    40    1
    51    23    24    1
    52    23    33    2
    53    24    28    1
    54    24    36    1
    55    24    64    1
    56    25    33    1
    57    25    65    1
    58    25    66    1
    59    26    34    1
    60    26    67    1
    61    26    68    1
    62    27    31    1
    63    27    69    1
    64    27    70    1
    65    28    31    1
    66    28    37    1
    67    28    42    1
    68    29    71    1
    69    29    72    1
    70    29    73    1
    71    30    34    1
    72    30    74    1
    73    31    75    1
    74    31    76    1
    75    32    77    1
    76    32    78    1
    77    32    79    1
    78    33    80    1
    79    34    81    1
    80    34    82    1
    81    35    83    1
    82    35    84    1
    83    35    85    1
    84    36    38    1
    85    36    86    1
    86    36    87    1
    87    37    41    1
    88    37    88    1
    89    37    89    1
    90    38    41    1
    91    38    43    1
    92    38    44    1
    93    39    90    1
    94    39    91    1
    95    39    92    1
    96    40    93    1
    97    40    94    1
    98    40    95    1
    99    41    96    1
   100    41    97    1
   101    43    98    1
   102    43    99    1
   103    43   103    1
   104    44   100    1
   105    44   101    1
   106    44   102    1
   107    45    46    1
   108    45   104    1
   109    46    48    1
   110    46   105    1
   111    47    51    1
   112    47   106    1
   113    48    50    1
   114    48   107    1
   115    49    50    1
   116    49    55    1
   117    49   108    1
   118    50   109    1
   119    51    52    1
   120    51   110    1
   121    52    54    1
   122    52   112    1
   123    53    54    1
   124    53    56    1
   125    53   113    1
   126    54   114    1
   127    56   118    1
   128    56   119    1
   129    57   123    1
   130    57   124    1
   131    57   125    1
