@<TRIPOS>MOLECULE
IMPHY002298
 88 95 0 0 0
SMALL
GASTEIGER

@<TRIPOS>ATOM
      1 O           9.2217   -0.2344    0.0000 O.2     1  UNL1       -0.4912
      2 O           2.8602    0.2344    0.0000 O.2     1  UNL1       -0.4912
      3 O           7.4184   -1.2942    0.0000 O.2     1  UNL1       -0.2834
      4 O           4.6635    1.2942    0.0000 O.2     1  UNL1       -0.2834
      5 O           6.4775    6.4340    0.0000 O.3     1  UNL1       -0.4907
      6 O           5.6045   -6.4340    0.0000 O.3     1  UNL1       -0.4907
      7 O           8.2434    7.4718    0.0000 O.3     1  UNL1       -0.4914
      8 O           3.8385   -7.4718    0.0000 O.3     1  UNL1       -0.4914
      9 N           6.4992    3.4026    0.0000 N.pl3   1  UNL1       -0.3598
     10 N           5.5827   -3.4026    0.0000 N.pl3   1  UNL1       -0.3598
     11 C           6.4927   -2.8957    0.0000 C.3     1  UNL1        0.0989
     12 C           5.5892    2.8957    0.0000 C.3     1  UNL1        0.0989
     13 C           6.4833    1.3333    0.0000 C.2     1  UNL1       -0.0166
     14 C           5.5986   -1.3333    0.0000 C.2     1  UNL1       -0.0166
     15 C           6.5007   -1.8541    0.0000 C.3     1  UNL1        0.0281
     16 C           5.5812    1.8541    0.0000 C.3     1  UNL1        0.0281
     17 C           7.3653    2.9026    0.0000 C.2     1  UNL1        0.1572
     18 C           4.7166   -2.9026    0.0000 C.2     1  UNL1        0.1572
     19 C           7.3813    1.8610    0.0000 C.2     1  UNL1        0.0481
     20 C           4.7006   -1.8610    0.0000 C.2     1  UNL1        0.0481
     21 C           6.4749    0.2483    0.0000 C.2     1  UNL1        0.0407
     22 C           5.6070   -0.2483    0.0000 C.2     1  UNL1        0.0407
     23 C           5.5827   -4.4026    0.0000 C.2     1  UNL1        0.1241
     24 C           6.4992    4.4026    0.0000 C.2     1  UNL1        0.1241
     25 C           3.8506   -3.4026    0.0000 C.2     1  UNL1        0.0126
     26 C           8.2313    3.4026    0.0000 C.2     1  UNL1        0.0126
     27 C           8.3333    1.3404    0.0000 C.2     1  UNL1       -0.0026
     28 C           3.7487   -1.3404    0.0000 C.2     1  UNL1       -0.0026
     29 C           7.3653    4.9026    0.0000 C.ar    1  UNL1        0.0853
     30 C           4.7166   -4.9026    0.0000 C.ar    1  UNL1        0.0853
     31 C           7.4146   -0.2942    0.0000 C.2     1  UNL1        0.2283
     32 C           4.6674    0.2942    0.0000 C.2     1  UNL1        0.2283
     33 C           3.8506   -4.4026    0.0000 C.ar    1  UNL1       -0.0026
     34 C           8.2313    4.4026    0.0000 C.ar    1  UNL1       -0.0026
     35 C           8.3500    0.2556    0.0000 C.2     1  UNL1        0.1679
     36 C           3.7319   -0.2556    0.0000 C.2     1  UNL1        0.1679
     37 C           4.7327   -5.9441    0.0000 C.ar    1  UNL1        0.1746
     38 C           7.3492    5.9441    0.0000 C.ar    1  UNL1        0.1746
     39 C           9.1413    4.9094    0.0000 C.ar    1  UNL1       -0.0499
     40 C           2.9406   -4.9094    0.0000 C.ar    1  UNL1       -0.0499
     41 C           8.2473    6.4718    0.0000 C.ar    1  UNL1        0.1623
     42 C           3.8347   -6.4718    0.0000 C.ar    1  UNL1        0.1623
     43 C           9.1493    5.9510    0.0000 C.ar    1  UNL1       -0.0157
     44 C           2.9326   -5.9510    0.0000 C.ar    1  UNL1       -0.0157
     45 C           2.0000   -0.2756    0.0000 C.3     1  UNL1        0.0790
     46 C          10.0819    0.2756    0.0000 C.3     1  UNL1        0.0790
     47 C           5.6160   -7.4340    0.0000 C.3     1  UNL1        0.0790
     48 C           6.4659    7.4340    0.0000 C.3     1  UNL1        0.0790
     49 C           9.1075    7.9751    0.0000 C.3     1  UNL1        0.0790
     50 C           2.9744   -7.9751    0.0000 C.3     1  UNL1        0.0790
     51 H           5.9623    3.7126    0.0000 H       1  UNL1        0.3798
     52 H           6.1196   -3.7126    0.0000 H       1  UNL1        0.3798
     53 H           6.6972   -3.4810    0.0000 H       1  UNL1        0.0975
     54 H           5.3847    3.4810    0.0000 H       1  UNL1        0.0975
     55 H           4.9776    2.7943    0.0000 H       1  UNL1        0.0975
     56 H           7.1043   -2.7943    0.0000 H       1  UNL1        0.0975
     57 H           4.9712    1.9649    0.0000 H       1  UNL1        0.0373
     58 H           5.3677    1.2720    0.0000 H       1  UNL1        0.0373
     59 H           7.1107   -1.9649    0.0000 H       1  UNL1        0.0373
     60 H           6.7142   -1.2720    0.0000 H       1  UNL1        0.0373
     61 H           6.1196   -4.7126    0.0000 H       1  UNL1        0.1324
     62 H           5.9623    4.7126    0.0000 H       1  UNL1        0.1324
     63 H           3.3137   -3.0926    0.0000 H       1  UNL1        0.0688
     64 H           8.7682    3.0926    0.0000 H       1  UNL1        0.0688
     65 H           3.2178   -1.6607    0.0000 H       1  UNL1        0.0663
     66 H           8.8641    1.6607    0.0000 H       1  UNL1        0.0663
     67 H           9.6746    4.5932    0.0000 H       1  UNL1        0.0625
     68 H           2.4073   -4.5932    0.0000 H       1  UNL1        0.0625
     69 H           9.6875    6.2589    0.0000 H       1  UNL1        0.0655
     70 H           2.3945   -6.2589    0.0000 H       1  UNL1        0.0655
     71 H          10.3981   -0.2577    0.0000 H       1  UNL1        0.0660
     72 H           1.6838    0.2577    0.0000 H       1  UNL1        0.0660
     73 H           1.4667   -0.5918    0.0000 H       1  UNL1        0.0660
     74 H           2.3162   -0.8089    0.0000 H       1  UNL1        0.0660
     75 H          10.6152    0.5918    0.0000 H       1  UNL1        0.0660
     76 H           9.7657    0.8089    0.0000 H       1  UNL1        0.0660
     77 H           4.9961   -7.4411    0.0000 H       1  UNL1        0.0660
     78 H           5.6232   -8.0539    0.0000 H       1  UNL1        0.0660
     79 H           6.2360   -7.4268    0.0000 H       1  UNL1        0.0660
     80 H           7.0859    7.4411    0.0000 H       1  UNL1        0.0660
     81 H           6.4587    8.0539    0.0000 H       1  UNL1        0.0660
     82 H           5.8460    7.4268    0.0000 H       1  UNL1        0.0660
     83 H           9.4196    7.4394    0.0000 H       1  UNL1        0.0660
     84 H           2.6624   -7.4394    0.0000 H       1  UNL1        0.0660
     85 H           2.4387   -8.2872    0.0000 H       1  UNL1        0.0660
     86 H           3.2865   -8.5109    0.0000 H       1  UNL1        0.0660
     87 H           9.6432    8.2872    0.0000 H       1  UNL1        0.0660
     88 H           8.7954    8.5109    0.0000 H       1  UNL1        0.0660
@<TRIPOS>UNITY_ATOM_ATTR
9 1
charge 1
10 1
charge 1
@<TRIPOS>BOND
     1     1    35    1
     2     1    46    1
     3     2    36    1
     4     2    45    1
     5     3    31    2
     6     4    32    2
     7     5    38    1
     8     5    48    1
     9     6    37    1
    10     6    47    1
    11     7    41    1
    12     7    49    1
    13     8    42    1
    14     8    50    1
    15     9    12    1
    16     9    17    1
    17     9    24    1
    18     9    51    1
    19    10    11    1
    20    10    18    1
    21    10    23    1
    22    10    52    1
    23    11    15    1
    24    11    53    1
    25    11    56    1
    26    12    16    1
    27    12    54    1
    28    12    55    1
    29    13    16    1
    30    13    19    1
    31    13    21    2
    32    14    15    1
    33    14    20    1
    34    14    22    2
    35    15    59    1
    36    15    60    1
    37    16    57    1
    38    16    58    1
    39    17    19    2
    40    17    26    1
    41    18    20    2
    42    18    25    1
    43    19    27    1
    44    20    28    1
    45    21    22    1
    46    21    31    1
    47    22    32    1
    48    23    30    2
    49    23    61    1
    50    24    29    2
    51    24    62    1
    52    25    33    2
    53    25    63    1
    54    26    34    2
    55    26    64    1
    56    27    35    2
    57    27    66    1
    58    28    36    2
    59    28    65    1
    60    29    34   ar
    61    29    38   ar
    62    30    33   ar
    63    30    37   ar
    64    31    35    1
    65    32    36    1
    66    33    40   ar
    67    34    39   ar
    68    37    42   ar
    69    38    41   ar
    70    39    43   ar
    71    39    67    1
    72    40    44   ar
    73    40    68    1
    74    41    43   ar
    75    42    44   ar
    76    43    69    1
    77    44    70    1
    78    45    72    1
    79    45    73    1
    80    45    74    1
    81    46    71    1
    82    46    75    1
    83    46    76    1
    84    47    77    1
    85    47    78    1
    86    47    79    1
    87    48    80    1
    88    48    81    1
    89    48    82    1
    90    49    83    1
    91    49    87    1
    92    49    88    1
    93    50    84    1
    94    50    85    1
    95    50    86    1
