@<TRIPOS>MOLECULE
IMPHY008721
 33 35 0 0 0
SMALL
GASTEIGER

@<TRIPOS>ATOM
      1 O           6.0682   -0.9254    0.0000 O.2     1  UNL1       -0.4507
      2 O           7.8003    1.0746    0.0000 O.3     1  UNL1       -0.4883
      3 O           4.3198    2.1092    0.0000 O.3     1  UNL1       -0.5058
      4 O           6.0682    2.0746    0.0000 O.2     1  UNL1       -0.2830
      5 O           2.5381   -0.9495    0.0000 O.3     1  UNL1       -0.5065
      6 C           5.2022    0.5746    0.0000 C.ar    1  UNL1        0.1092
      7 C           5.2022   -0.4254    0.0000 C.ar    1  UNL1        0.1465
      8 C           6.9343   -0.4254    0.0000 C.ar    1  UNL1        0.1808
      9 C           6.9343    0.5746    0.0000 C.ar    1  UNL1        0.2107
     10 C           6.0682    1.0746    0.0000 C.ar    1  UNL1        0.2381
     11 C           7.8003   -0.9254    0.0000 C.ar    1  UNL1        0.0211
     12 C           4.3083    1.1093    0.0000 C.ar    1  UNL1        0.1348
     13 C           4.3083   -0.9601    0.0000 C.ar    1  UNL1        0.0231
     14 C           3.4022    0.5954    0.0000 C.ar    1  UNL1        0.0223
     15 C           3.4022   -0.4462    0.0000 C.ar    1  UNL1        0.1239
     16 C           7.8003   -1.9254    0.0000 C.ar    1  UNL1       -0.0510
     17 C           8.6663   -0.4254    0.0000 C.ar    1  UNL1       -0.0510
     18 C           8.6663   -2.4254    0.0000 C.ar    1  UNL1       -0.0611
     19 C           9.5323   -0.9254    0.0000 C.ar    1  UNL1       -0.0611
     20 C           9.5323   -1.9254    0.0000 C.ar    1  UNL1       -0.0617
     21 C           7.8003    2.0746    0.0000 C.3     1  UNL1        0.0791
     22 H           4.3154   -1.5800    0.0000 H       1  UNL1        0.0691
     23 H           2.8665    0.9075    0.0000 H       1  UNL1        0.0691
     24 H           7.2634   -2.2354    0.0000 H       1  UNL1        0.0625
     25 H           8.6663    0.1946    0.0000 H       1  UNL1        0.0625
     26 H           8.6663   -3.0454    0.0000 H       1  UNL1        0.0618
     27 H          10.0693   -0.6154    0.0000 H       1  UNL1        0.0618
     28 H          10.0693   -2.2354    0.0000 H       1  UNL1        0.0618
     29 H           3.7865    2.4254    0.0000 H       1  UNL1        0.2922
     30 H           8.4203    2.0746    0.0000 H       1  UNL1        0.0660
     31 H           7.8003    2.6946    0.0000 H       1  UNL1        0.0660
     32 H           7.1803    2.0746    0.0000 H       1  UNL1        0.0660
     33 H           2.0000   -0.6416    0.0000 H       1  UNL1        0.2921
@<TRIPOS>BOND
     1     1     7   ar
     2     1     8   ar
     3     2     9    1
     4     2    21    1
     5     3    12    1
     6     3    29    1
     7     4    10    2
     8     5    15    1
     9     5    33    1
    10     6     7   ar
    11     6    10   ar
    12     6    12   ar
    13     7    13   ar
    14     8     9   ar
    15     8    11    1
    16     9    10   ar
    17    11    16   ar
    18    11    17   ar
    19    12    14   ar
    20    13    15   ar
    21    13    22    1
    22    14    15   ar
    23    14    23    1
    24    16    18   ar
    25    16    24    1
    26    17    19   ar
    27    17    25    1
    28    18    20   ar
    29    18    26    1
    30    19    20   ar
    31    19    27    1
    32    20    28    1
    33    21    30    1
    34    21    31    1
    35    21    32    1
