@<TRIPOS>MOLECULE
IMPHY007621
 43 47 0 0 0
SMALL
GASTEIGER

@<TRIPOS>ATOM
      1 O           2.4721    0.2787    0.0000 O.3     1  UNL1       -0.4526
      2 O           2.9060   -1.3407    0.0000 O.3     1  UNL1       -0.4526
      3 O          10.8825   -2.0062    0.0000 O.3     1  UNL1       -0.4914
      4 O           9.1843   -3.1516    0.0000 O.3     1  UNL1       -0.5033
      5 N           7.0199    2.5304    0.0000 N.3     1  UNL1       -0.2972
      6 C           6.6493    1.1817    0.0000 C.3     1  UNL1        0.0397
      7 C           6.9081    0.2158    0.0000 C.3     1  UNL1        0.0228
      8 C           7.8859    2.0304    0.0000 C.3     1  UNL1        0.0100
      9 C           5.2504    0.6729    0.0000 C.ar    1  UNL1       -0.0225
     10 C           5.5092   -0.2930    0.0000 C.ar    1  UNL1       -0.0304
     11 C           8.6825    0.8706    0.0000 C.3     1  UNL1       -0.0075
     12 C           8.1291   -0.6498    0.0000 C.ar    1  UNL1       -0.0318
     13 C           8.9582   -0.0907    0.0000 C.ar    1  UNL1       -0.0381
     14 C           4.2485    0.9580    0.0000 C.ar    1  UNL1       -0.0112
     15 C           4.7841   -1.0408    0.0000 C.ar    1  UNL1       -0.0120
     16 C           6.7611    3.4963    0.0000 C.3     1  UNL1       -0.0121
     17 C           8.1858   -1.6899    0.0000 C.ar    1  UNL1       -0.0125
     18 C           9.9013   -0.5328    0.0000 C.ar    1  UNL1       -0.0128
     19 C           3.5063    0.2272    0.0000 C.ar    1  UNL1        0.1666
     20 C           3.7759   -0.7790    0.0000 C.ar    1  UNL1        0.1665
     21 C           9.1184   -2.1538    0.0000 C.ar    1  UNL1        0.1587
     22 C           9.9820   -1.5713    0.0000 C.ar    1  UNL1        0.1615
     23 C           2.1019   -0.6884    0.0000 C.3     1  UNL1        0.2332
     24 C          11.7093   -1.4438    0.0000 C.3     1  UNL1        0.0790
     25 H           6.4293    2.0028    0.0000 H       1  UNL1        0.0515
     26 H           7.1281   -0.6052    0.0000 H       1  UNL1        0.0410
     27 H           8.1906    2.5703    0.0000 H       1  UNL1        0.0436
     28 H           8.4288    1.7309    0.0000 H       1  UNL1        0.0436
     29 H           8.6876    1.4906    0.0000 H       1  UNL1        0.0332
     30 H           9.2968    0.9544    0.0000 H       1  UNL1        0.0332
     31 H           4.0950    1.5587    0.0000 H       1  UNL1        0.0659
     32 H           4.9515   -1.6378    0.0000 H       1  UNL1        0.0658
     33 H           6.1622    3.3358    0.0000 H       1  UNL1        0.0391
     34 H           6.6006    4.0952    0.0000 H       1  UNL1        0.0391
     35 H           7.3599    3.6568    0.0000 H       1  UNL1        0.0391
     36 H           7.6678   -2.0307    0.0000 H       1  UNL1        0.0658
     37 H          10.4113   -0.1802    0.0000 H       1  UNL1        0.0658
     38 H           1.7640   -1.2082    0.0000 H       1  UNL1        0.1166
     39 H           1.5494   -0.4070    0.0000 H       1  UNL1        0.1166
     40 H           8.6690   -3.4963    0.0000 H       1  UNL1        0.2923
     41 H          11.3607   -0.9311    0.0000 H       1  UNL1        0.0660
     42 H          12.2220   -1.0951    0.0000 H       1  UNL1        0.0660
     43 H          12.0580   -1.9565    0.0000 H       1  UNL1        0.0660
@<TRIPOS>BOND
     1     1    19    1
     2     1    23    1
     3     2    20    1
     4     2    23    1
     5     3    22    1
     6     3    24    1
     7     4    21    1
     8     4    40    1
     9     5     6    1
    10     5     8    1
    11     5    16    1
    12     6     9    1
    13     6    11    1
    14     6    25    1
    15     7     8    1
    16     7    10    1
    17     7    12    1
    18     7    26    1
    19     8    27    1
    20     8    28    1
    21     9    10   ar
    22     9    14   ar
    23    10    15   ar
    24    11    13    1
    25    11    29    1
    26    11    30    1
    27    12    13   ar
    28    12    17   ar
    29    13    18   ar
    30    14    19   ar
    31    14    31    1
    32    15    20   ar
    33    15    32    1
    34    16    33    1
    35    16    34    1
    36    16    35    1
    37    17    21   ar
    38    17    36    1
    39    18    22   ar
    40    18    37    1
    41    19    20   ar
    42    21    22   ar
    43    23    38    1
    44    23    39    1
    45    24    41    1
    46    24    42    1
    47    24    43    1
