@<TRIPOS>MOLECULE
IMPHY007257
 22 22 0 0 0
SMALL
GASTEIGER

@<TRIPOS>ATOM
      1 O           4.2690    2.4050    0.0000 O.3     1  UNL1       -0.5033
      2 O           2.5369    1.4050    0.0000 O.3     1  UNL1       -0.5033
      3 N           6.8671   -2.0950    0.0000 N.3     1  UNL1       -0.3297
      4 C           6.0010   -0.5950    0.0000 C.3     1  UNL1       -0.0152
      5 C           5.1350   -0.0950    0.0000 C.ar    1  UNL1       -0.0425
      6 C           6.0010   -1.5950    0.0000 C.3     1  UNL1       -0.0029
      7 C           5.1350    0.9050    0.0000 C.ar    1  UNL1       -0.0133
      8 C           4.2690   -0.5950    0.0000 C.ar    1  UNL1       -0.0549
      9 C           4.2690    1.4050    0.0000 C.ar    1  UNL1        0.1585
     10 C           3.4030   -0.0950    0.0000 C.ar    1  UNL1       -0.0163
     11 C           3.4030    0.9050    0.0000 C.ar    1  UNL1        0.1582
     12 H           6.6116   -0.7027    0.0000 H       1  UNL1        0.0325
     13 H           6.2131   -0.0124    0.0000 H       1  UNL1        0.0325
     14 H           5.3905   -1.4873    0.0000 H       1  UNL1        0.0425
     15 H           5.7890   -2.1776    0.0000 H       1  UNL1        0.0425
     16 H           5.6720    1.2150    0.0000 H       1  UNL1        0.0658
     17 H           4.2690   -1.2150    0.0000 H       1  UNL1        0.0621
     18 H           2.8660   -0.4050    0.0000 H       1  UNL1        0.0655
     19 H           6.8671   -2.7150    0.0000 H       1  UNL1        0.1182
     20 H           7.4040   -1.7850    0.0000 H       1  UNL1        0.1182
     21 H           4.8059    2.7150    0.0000 H       1  UNL1        0.2923
     22 H           2.0000    1.0950    0.0000 H       1  UNL1        0.2923
@<TRIPOS>BOND
     1     1     9    1
     2     1    21    1
     3     2    11    1
     4     2    22    1
     5     3     6    1
     6     3    19    1
     7     3    20    1
     8     4     5    1
     9     4     6    1
    10     4    12    1
    11     4    13    1
    12     5     7   ar
    13     5     8   ar
    14     6    14    1
    15     6    15    1
    16     7     9   ar
    17     7    16    1
    18     8    10   ar
    19     8    17    1
    20     9    11   ar
    21    10    11   ar
    22    10    18    1
