@<TRIPOS>MOLECULE
IMPHY004873
 26 27 0 0 0
SMALL
GASTEIGER

@<TRIPOS>ATOM
      1 O           4.6660    1.5600    0.0000 O.3     1  UNL1       -0.4906
      2 O           6.3981    0.5600    0.0000 O.3     1  UNL1       -0.4873
      3 O           6.3981   -1.4400    0.0000 O.2     1  UNL1       -0.2638
      4 N           4.6660   -1.4400    0.0000 N.ar    1  UNL1       -0.3189
      5 C           3.8000    0.0600    0.0000 C.ar    1  UNL1        0.0438
      6 C           3.8000   -0.9400    0.0000 C.ar    1  UNL1        0.0529
      7 C           4.6660    0.5600    0.0000 C.ar    1  UNL1        0.1760
      8 C           5.5321    0.0600    0.0000 C.ar    1  UNL1        0.2273
      9 C           2.9061    0.5947    0.0000 C.ar    1  UNL1       -0.0490
     10 C           5.5321   -0.9400    0.0000 C.ar    1  UNL1        0.2948
     11 C           2.9061   -1.4747    0.0000 C.ar    1  UNL1       -0.0376
     12 C           2.0000    0.0808    0.0000 C.ar    1  UNL1       -0.0610
     13 C           2.0000   -0.9608    0.0000 C.ar    1  UNL1       -0.0598
     14 C           5.5321    2.0600    0.0000 C.3     1  UNL1        0.0790
     15 C           7.2641    0.0600    0.0000 C.3     1  UNL1        0.0792
     16 H           4.6660   -2.0600    0.0000 H       1  UNL1        0.1690
     17 H           2.9132    1.2146    0.0000 H       1  UNL1        0.0625
     18 H           2.9132   -2.0946    0.0000 H       1  UNL1        0.0638
     19 H           1.4643    0.3929    0.0000 H       1  UNL1        0.0618
     20 H           1.4643   -1.2729    0.0000 H       1  UNL1        0.0618
     21 H           5.8421    1.5231    0.0000 H       1  UNL1        0.0660
     22 H           6.0690    2.3700    0.0000 H       1  UNL1        0.0660
     23 H           5.2221    2.5969    0.0000 H       1  UNL1        0.0660
     24 H           6.9541   -0.4769    0.0000 H       1  UNL1        0.0660
     25 H           7.8010   -0.2500    0.0000 H       1  UNL1        0.0660
     26 H           7.5741    0.5969    0.0000 H       1  UNL1        0.0660
@<TRIPOS>BOND
     1     1     7    1
     2     1    14    1
     3     2     8    1
     4     2    15    1
     5     3    10    2
     6     4     6   ar
     7     4    10   ar
     8     4    16    1
     9     5     6   ar
    10     5     7   ar
    11     5     9   ar
    12     6    11   ar
    13     7     8   ar
    14     8    10   ar
    15     9    12   ar
    16     9    17    1
    17    11    13   ar
    18    11    18    1
    19    12    13   ar
    20    12    19    1
    21    13    20    1
    22    14    21    1
    23    14    22    1
    24    14    23    1
    25    15    24    1
    26    15    25    1
    27    15    26    1
