@<TRIPOS>MOLECULE
IMPHY000873
 87 90 0 0 0
SMALL
GASTEIGER

@<TRIPOS>ATOM
      1 O           7.5345   -2.7496    0.0000 O.3     1  UNL1       -0.3362
      2 O           8.5345   -3.7496    0.0000 O.3     1  UNL1       -0.3125
      3 O           6.0666   -0.5113    0.0000 O.3     1  UNL1       -0.3460
      4 O           6.8025   -3.7496    0.0000 O.3     1  UNL1       -0.3404
      5 O           4.9076    0.7758    0.0000 O.3     1  UNL1       -0.3405
      6 O           9.7946   -1.4895    0.0000 O.3     1  UNL1       -0.3837
      7 O           8.0345   -0.2107    0.0000 O.3     1  UNL1       -0.3864
      8 O           4.4918    2.7321    0.0000 O.3     1  UNL1       -0.3460
      9 O          10.2287   -2.3894    0.0000 O.3     1  UNL1       -0.3896
     10 O           8.5345   -5.7496    0.0000 O.3     1  UNL1       -0.3841
     11 O           5.0270    4.3794    0.0000 O.3     1  UNL1       -0.3405
     12 O           6.8025   -6.7496    0.0000 O.3     1  UNL1       -0.3864
     13 O           4.5803   -1.8496    0.0000 O.3     1  UNL1       -0.3841
     14 O           2.2623    0.7247    0.0000 O.3     1  UNL1       -0.3865
     15 O           2.6782   -1.2316    0.0000 O.3     1  UNL1       -0.3864
     16 O           5.0704   -5.7496    0.0000 O.3     1  UNL1       -0.3865
     17 O           2.5897    3.3502    0.0000 O.3     1  UNL1       -0.3841
     18 O           2.1738    5.3064    0.0000 O.3     1  UNL1       -0.3864
     19 O           3.6601    6.6447    0.0000 O.3     1  UNL1       -0.3865
     20 O           4.2044   -4.2496    0.0000 O.3     1  UNL1       -0.3924
     21 O           6.5133    5.7176    0.0000 O.3     1  UNL1       -0.3924
     22 C           8.5345   -2.7496    0.0000 C.3     1  UNL1        0.2252
     23 C           8.8436   -1.7985    0.0000 C.3     1  UNL1        0.1395
     24 C           7.2255   -1.7985    0.0000 C.3     1  UNL1        0.1138
     25 C           8.0345   -1.2107    0.0000 C.3     1  UNL1        0.1145
     26 C           7.6685   -4.2496    0.0000 C.3     1  UNL1        0.1912
     27 C           6.2745   -1.4895    0.0000 C.3     1  UNL1        0.0796
     28 C           9.4856   -3.0586    0.0000 C.3     1  UNL1        0.1009
     29 C           7.6685   -5.2496    0.0000 C.3     1  UNL1        0.1342
     30 C           5.1155   -0.2023    0.0000 C.3     1  UNL1        0.1880
     31 C           6.8025   -5.7496    0.0000 C.3     1  UNL1        0.1141
     32 C           3.9565    1.0848    0.0000 C.3     1  UNL1        0.1134
     33 C           4.3724   -0.8715    0.0000 C.3     1  UNL1        0.1341
     34 C           3.2134    0.4157    0.0000 C.3     1  UNL1        0.1119
     35 C           3.4213   -0.5624    0.0000 C.3     1  UNL1        0.1141
     36 C           5.9365   -5.2496    0.0000 C.3     1  UNL1        0.1119
     37 C           5.9365   -4.2496    0.0000 C.3     1  UNL1        0.1130
     38 C           3.7486    2.0630    0.0000 C.3     1  UNL1        0.0796
     39 C           4.2839    3.7103    0.0000 C.3     1  UNL1        0.1880
     40 C           3.3328    4.0193    0.0000 C.3     1  UNL1        0.1341
     41 C           3.1249    4.9974    0.0000 C.3     1  UNL1        0.1141
     42 C           3.8680    5.6666    0.0000 C.3     1  UNL1        0.1119
     43 C           4.8191    5.3575    0.0000 C.3     1  UNL1        0.1130
     44 C           5.0704   -3.7496    0.0000 C.3     1  UNL1        0.0730
     45 C           5.5622    6.0267    0.0000 C.3     1  UNL1        0.0730
     46 H           9.2820   -2.2369    0.0000 H       1  UNL1        0.0675
     47 H           6.7871   -2.2369    0.0000 H       1  UNL1        0.0647
     48 H           8.5870   -0.9292    0.0000 H       1  UNL1        0.0648
     49 H           7.6685   -3.6296    0.0000 H       1  UNL1        0.0939
     50 H           5.6548   -1.5111    0.0000 H       1  UNL1        0.0587
     51 H           6.1882   -2.1035    0.0000 H       1  UNL1        0.0587
     52 H           9.1945   -3.6060    0.0000 H       1  UNL1        0.0612
     53 H           9.9742   -3.4403    0.0000 H       1  UNL1        0.0612
     54 H           7.6685   -5.8696    0.0000 H       1  UNL1        0.0671
     55 H           5.2444   -0.8088    0.0000 H       1  UNL1        0.0937
     56 H           6.2656   -6.0596    0.0000 H       1  UNL1        0.0648
     57 H           4.4173    1.4997    0.0000 H       1  UNL1        0.0647
     58 H           3.9116   -1.2863    0.0000 H       1  UNL1        0.0671
     59 H           2.7526    0.0008    0.0000 H       1  UNL1        0.0647
     60 H           2.8316   -0.3709    0.0000 H       1  UNL1        0.0648
     61 H           5.3995   -4.9396    0.0000 H       1  UNL1        0.0647
     62 H           5.9365   -3.6296    0.0000 H       1  UNL1        0.0647
     63 H           3.4201    2.5888    0.0000 H       1  UNL1        0.0587
     64 H           3.1738    1.8307    0.0000 H       1  UNL1        0.0587
     65 H           9.9235   -0.8830    0.0000 H       1  UNL1        0.2101
     66 H           8.5715    0.0993    0.0000 H       1  UNL1        0.2100
     67 H           3.8231    3.2954    0.0000 H       1  UNL1        0.0937
     68 H           2.7431    4.2109    0.0000 H       1  UNL1        0.0671
     69 H           2.9960    5.6039    0.0000 H       1  UNL1        0.0648
     70 H           4.3288    6.0814    0.0000 H       1  UNL1        0.0647
     71 H           5.4087    5.1659    0.0000 H       1  UNL1        0.0647
     72 H           5.4690   -3.2746    0.0000 H       1  UNL1        0.0584
     73 H           4.6719   -3.2746    0.0000 H       1  UNL1        0.0584
     74 H          10.8184   -2.5810    0.0000 H       1  UNL1        0.2096
     75 H           8.5345   -6.3696    0.0000 H       1  UNL1        0.2101
     76 H           6.2656   -7.0596    0.0000 H       1  UNL1        0.2100
     77 H           4.1195   -2.2645    0.0000 H       1  UNL1        0.2101
     78 H           2.1334    1.3312    0.0000 H       1  UNL1        0.2100
     79 H           2.0885   -1.0400    0.0000 H       1  UNL1        0.2100
     80 H           5.0704   -6.3696    0.0000 H       1  UNL1        0.2100
     81 H           5.8533    6.5741    0.0000 H       1  UNL1        0.0584
     82 H           5.0737    6.4084    0.0000 H       1  UNL1        0.0584
     83 H           2.0000    3.5417    0.0000 H       1  UNL1        0.2101
     84 H           2.0449    5.9129    0.0000 H       1  UNL1        0.2100
     85 H           4.1209    7.0596    0.0000 H       1  UNL1        0.2100
     86 H           3.6675   -3.9396    0.0000 H       1  UNL1        0.2095
     87 H           6.9740    6.1325    0.0000 H       1  UNL1        0.2095
@<TRIPOS>BOND
     1     1    22    1
     2     1    24    1
     3    22     2    1
     4    26     2    1
     5     3    27    1
     6    30     3    1
     7     4    26    1
     8     4    37    1
     9     5    30    1
    10     5    32    1
    11    23     6    1
    12     6    65    1
    13    25     7    1
    14     7    66    1
    15     8    38    1
    16    39     8    1
    17     9    28    1
    18     9    74    1
    19    29    10    1
    20    10    75    1
    21    11    39    1
    22    11    43    1
    23    31    12    1
    24    12    76    1
    25    33    13    1
    26    13    77    1
    27    34    14    1
    28    14    78    1
    29    35    15    1
    30    15    79    1
    31    36    16    1
    32    16    80    1
    33    40    17    1
    34    17    83    1
    35    41    18    1
    36    18    84    1
    37    42    19    1
    38    19    85    1
    39    20    44    1
    40    20    86    1
    41    21    45    1
    42    21    87    1
    43    22    23    1
    44    22    28    1
    45    23    25    1
    46    23    46    1
    47    24    25    1
    48    24    27    1
    49    24    47    1
    50    25    48    1
    51    26    29    1
    52    26    49    1
    53    27    50    1
    54    27    51    1
    55    28    52    1
    56    28    53    1
    57    29    31    1
    58    29    54    1
    59    30    33    1
    60    30    55    1
    61    31    36    1
    62    31    56    1
    63    32    34    1
    64    32    38    1
    65    32    57    1
    66    33    35    1
    67    33    58    1
    68    34    35    1
    69    34    59    1
    70    35    60    1
    71    36    37    1
    72    36    61    1
    73    37    44    1
    74    37    62    1
    75    38    63    1
    76    38    64    1
    77    39    40    1
    78    39    67    1
    79    40    41    1
    80    40    68    1
    81    41    42    1
    82    41    69    1
    83    42    43    1
    84    42    70    1
    85    43    45    1
    86    43    71    1
    87    44    72    1
    88    44    73    1
    89    45    81    1
    90    45    82    1
