@<TRIPOS>MOLECULE
IMPHY001707
 177 188 0 0 0
SMALL
GASTEIGER

@<TRIPOS>ATOM
      1 O          15.5473    3.1783    0.0000 O.3     1  UNL1       -0.3281
      2 O          16.4294    0.6368    0.0000 O.3     1  UNL1       -0.4512
      3 O          18.1996    1.6336    0.0000 O.3     1  UNL1       -0.4500
      4 O          18.2154    3.6819    0.0000 O.3     1  UNL1       -0.4476
      5 O          16.4415    4.7060    0.0000 O.3     1  UNL1       -0.4275
      6 O          14.4385    0.6708    0.0000 O.3     1  UNL1       -0.4584
      7 O          15.4090   -1.0435    0.0000 O.2     1  UNL1       -0.2449
      8 O          19.0829    3.1235    0.0000 O.2     1  UNL1       -0.2449
      9 O          17.3551    5.1852    0.0000 O.2     1  UNL1       -0.2449
     10 O          14.7094    4.6994    0.0000 O.2     1  UNL1       -0.2449
     11 O          15.4385    0.6708    0.0000 O.2     1  UNL1       -0.2449
     12 O          15.9354   -3.6974    0.0000 O.3     1  UNL1       -0.5028
     13 O          14.9417   -3.6974    0.0000 O.3     1  UNL1       -0.5028
     14 O          11.8693   -1.9393    0.0000 O.3     1  UNL1       -0.4476
     15 O          19.0078   -1.9393    0.0000 O.3     1  UNL1       -0.5032
     16 O          17.9836   -3.7132    0.0000 O.3     1  UNL1       -0.5009
     17 O          12.8934   -3.7132    0.0000 O.3     1  UNL1       -0.5009
     18 O          22.5352    2.0835    0.0000 O.3     1  UNL1       -0.5032
     19 O          20.7686   -0.8962    0.0000 O.3     1  UNL1       -0.5032
     20 O          19.9628    7.6752    0.0000 O.3     1  UNL1       -0.5032
     21 O          21.6833    4.6685    0.0000 O.3     1  UNL1       -0.5032
     22 O          22.5121    0.0837    0.0000 O.3     1  UNL1       -0.5009
     23 O          13.8299    8.1960    0.0000 O.3     1  UNL1       -0.5032
     24 O          17.2940    8.2093    0.0000 O.3     1  UNL1       -0.5032
     25 O          21.6910    6.6685    0.0000 O.3     1  UNL1       -0.5009
     26 O          15.5581    9.2027    0.0000 O.3     1  UNL1       -0.5009
     27 O           6.1053   -3.2852    0.0000 O.3     1  UNL1       -0.4511
     28 O           6.4601   -1.3169    0.0000 O.3     1  UNL1       -0.4498
     29 O           8.9283   -2.2700    0.0000 O.3     1  UNL1       -0.4464
     30 O           7.3447   -4.4778    0.0000 O.3     1  UNL1       -0.3846
     31 O           8.8897   -4.5058    0.0000 O.3     1  UNL1       -0.4584
     32 O          12.8759   -0.2111    0.0000 O.3     1  UNL1       -0.5008
     33 O          10.3659   -2.7996    0.0000 O.2     1  UNL1       -0.2448
     34 O           7.5786    0.0056    0.0000 O.2     1  UNL1       -0.2970
     35 O          11.8826    1.5248    0.0000 O.3     1  UNL1       -0.5008
     36 O           9.8826    1.5325    0.0000 O.3     1  UNL1       -0.5032
     37 O           4.9313   -4.3526    0.0000 O.2     1  UNL1       -0.2448
     38 O           5.3417   -2.6395    0.0000 O.2     1  UNL1       -0.2449
     39 O           6.5735   -3.5057    0.0000 O.3     1  UNL1       -0.5027
     40 O          10.5943   -4.8131    0.0000 O.2     1  UNL1       -0.2449
     41 O           8.9981   -6.2110    0.0000 O.3     1  UNL1       -0.5028
     42 O           8.6646   -3.9844    0.0000 O.3     1  UNL1       -0.5009
     43 O           7.4920   -7.8805    0.0000 O.3     1  UNL1       -0.5028
     44 O           9.0837   -9.1297    0.0000 O.3     1  UNL1       -0.5009
     45 O          10.9555   -8.3614    0.0000 O.3     1  UNL1       -0.5032
     46 O           4.3469    1.6044    0.0000 O.3     1  UNL1       -0.5032
     47 O           2.1100   -1.0406    0.0000 O.3     1  UNL1       -0.5032
     48 O           2.4649    0.9276    0.0000 O.3     1  UNL1       -0.5009
     49 C          16.4294    1.6368    0.0000 C.3     1  UNL1        0.1730
     50 C          17.3394    2.1436    0.0000 C.3     1  UNL1        0.1851
     51 C          15.5634    2.1368    0.0000 C.3     1  UNL1        0.1371
     52 C          17.3474    3.1852    0.0000 C.3     1  UNL1        0.2053
     53 C          16.4453    3.7060    0.0000 C.3     1  UNL1        0.2465
     54 C          14.6973    1.6368    0.0000 C.3     1  UNL1        0.1226
     55 C          15.9385   -0.1952    0.0000 C.2     1  UNL1        0.3405
     56 C          19.0713    2.1236    0.0000 C.2     1  UNL1        0.3399
     57 C          18.2192    4.6819    0.0000 C.2     1  UNL1        0.3400
     58 C          16.4385   -1.0612    0.0000 C.ar    1  UNL1        0.0740
     59 C          15.5735    5.2027    0.0000 C.2     1  UNL1        0.3417
     60 C          14.9385   -0.1952    0.0000 C.2     1  UNL1        0.3401
     61 C          15.9385   -1.9272    0.0000 C.ar    1  UNL1        0.0458
     62 C          14.4385   -1.0612    0.0000 C.ar    1  UNL1        0.0740
     63 C          19.9315    1.6136    0.0000 C.ar    1  UNL1        0.0661
     64 C          14.9385   -1.9272    0.0000 C.ar    1  UNL1        0.0458
     65 C          19.0872    5.1785    0.0000 C.ar    1  UNL1        0.0661
     66 C          15.5697    6.2027    0.0000 C.ar    1  UNL1        0.0662
     67 C          17.4800   -1.0451    0.0000 C.ar    1  UNL1       -0.0017
     68 C          16.4454   -2.8372    0.0000 C.ar    1  UNL1        0.1708
     69 C          14.4317   -2.8372    0.0000 C.ar    1  UNL1        0.1708
     70 C          13.3970   -1.0451    0.0000 C.ar    1  UNL1       -0.0009
     71 C          19.9199    0.6137    0.0000 C.ar    1  UNL1       -0.0023
     72 C          20.8033    2.1036    0.0000 C.ar    1  UNL1       -0.0023
     73 C          18.0078   -1.9432    0.0000 C.ar    1  UNL1        0.1628
     74 C          19.9513    4.6752    0.0000 C.ar    1  UNL1       -0.0023
     75 C          19.0910    6.1785    0.0000 C.ar    1  UNL1       -0.0023
     76 C          17.4870   -2.8453    0.0000 C.ar    1  UNL1        0.2012
     77 C          12.8693   -1.9432    0.0000 C.ar    1  UNL1        0.1743
     78 C          13.3901   -2.8453    0.0000 C.ar    1  UNL1        0.2021
     79 C          16.4338    6.7060    0.0000 C.ar    1  UNL1       -0.0023
     80 C          14.7017    6.6993    0.0000 C.ar    1  UNL1       -0.0023
     81 C          21.6634    1.5936    0.0000 C.ar    1  UNL1        0.1628
     82 C          20.7801    0.1037    0.0000 C.ar    1  UNL1        0.1628
     83 C          19.9590    6.6752    0.0000 C.ar    1  UNL1        0.1628
     84 C          20.8192    5.1718    0.0000 C.ar    1  UNL1        0.1628
     85 C          21.6519    0.5936    0.0000 C.ar    1  UNL1        0.2006
     86 C          14.6979    7.6993    0.0000 C.ar    1  UNL1        0.1628
     87 C          16.4299    7.7060    0.0000 C.ar    1  UNL1        0.1628
     88 C          20.8231    6.1718    0.0000 C.ar    1  UNL1        0.2006
     89 C          15.5620    8.2027    0.0000 C.ar    1  UNL1        0.2006
     90 C           7.0463   -2.9468    0.0000 C.3     1  UNL1        0.1728
     91 C           7.2237   -1.9627    0.0000 C.3     1  UNL1        0.1858
     92 C           7.8098   -3.5925    0.0000 C.3     1  UNL1        0.1296
     93 C           8.1647   -1.6243    0.0000 C.3     1  UNL1        0.1979
     94 C          11.3726   -1.0714    0.0000 C.ar    1  UNL1        0.1876
     95 C           8.8063   -3.5092    0.0000 C.3     1  UNL1        0.1222
     96 C          10.3726   -1.0675    0.0000 C.ar    1  UNL1        0.1085
     97 C          11.8759   -0.2073    0.0000 C.ar    1  UNL1        0.2060
     98 C           9.8693   -1.9316    0.0000 C.2     1  UNL1        0.3438
     99 C           8.3422   -0.6401    0.0000 C.2     1  UNL1        0.1645
    100 C           9.8760   -0.1996    0.0000 C.ar    1  UNL1        0.0013
    101 C          11.3793    0.6607    0.0000 C.ar    1  UNL1        0.2044
    102 C           5.9278   -4.2693    0.0000 C.2     1  UNL1        0.3433
    103 C          10.3793    0.6645    0.0000 C.ar    1  UNL1        0.1630
    104 C           5.5191   -1.6553    0.0000 C.2     1  UNL1        0.3399
    105 C           6.2662   -5.2103    0.0000 C.ar    1  UNL1        0.1047
    106 C           7.5887   -6.3288    0.0000 C.ar    1  UNL1        0.0326
    107 C           8.5729   -6.5062    0.0000 C.ar    1  UNL1        0.0450
    108 C           9.6533   -5.1515    0.0000 C.2     1  UNL1        0.3401
    109 C           9.4758   -6.1356    0.0000 C.ar    1  UNL1        0.0740
    110 C           6.6046   -6.1513    0.0000 C.ar    1  UNL1       -0.0326
    111 C           6.9119   -4.4467    0.0000 C.ar    1  UNL1        0.1762
    112 C           4.7556   -1.0096    0.0000 C.ar    1  UNL1        0.0661
    113 C           8.2345   -5.5652    0.0000 C.ar    1  UNL1        0.1700
    114 C           7.8961   -4.6242    0.0000 C.ar    1  UNL1        0.2020
    115 C           8.4214   -7.5115    0.0000 C.ar    1  UNL1        0.1707
    116 C          10.2899   -6.7446    0.0000 C.ar    1  UNL1       -0.0017
    117 C           9.2212   -8.1392    0.0000 C.ar    1  UNL1        0.2012
    118 C           3.8146   -1.3480    0.0000 C.ar    1  UNL1       -0.0023
    119 C           4.9330   -0.0255    0.0000 C.ar    1  UNL1       -0.0023
    120 C          10.1617   -7.7531    0.0000 C.ar    1  UNL1        0.1628
    121 C           4.1695    0.6203    0.0000 C.ar    1  UNL1        0.1628
    122 C           3.0510   -0.7023    0.0000 C.ar    1  UNL1        0.1628
    123 C           3.2285    0.2819    0.0000 C.ar    1  UNL1        0.2006
    124 H          16.9639    1.3226    0.0000 H       1  UNL1        0.0801
    125 H          17.3310    1.5237    0.0000 H       1  UNL1        0.0813
    126 H          15.0241    2.4426    0.0000 H       1  UNL1        0.0670
    127 H          17.3486    3.8052    0.0000 H       1  UNL1        0.0837
    128 H          15.9066    4.0129    0.0000 H       1  UNL1        0.1098
    129 H          14.5369    2.2356    0.0000 H       1  UNL1        0.0725
    130 H          14.0773    1.6368    0.0000 H       1  UNL1        0.0725
    131 H          17.7838   -0.5047    0.0000 H       1  UNL1        0.0664
    132 H          13.0932   -0.5047    0.0000 H       1  UNL1        0.0664
    133 H          19.3795    0.3099    0.0000 H       1  UNL1        0.0663
    134 H          20.8104    2.7235    0.0000 H       1  UNL1        0.0663
    135 H          19.9489    4.0552    0.0000 H       1  UNL1        0.0663
    136 H          18.5553    6.4906    0.0000 H       1  UNL1        0.0663
    137 H          16.9719    6.3981    0.0000 H       1  UNL1        0.0663
    138 H          14.1660    6.3873    0.0000 H       1  UNL1        0.0663
    139 H          16.2392   -4.2379    0.0000 H       1  UNL1        0.2923
    140 H          14.6379   -4.2379    0.0000 H       1  UNL1        0.2923
    141 H          19.3157   -1.4012    0.0000 H       1  UNL1        0.2923
    142 H           7.6297   -2.7370    0.0000 H       1  UNL1        0.0801
    143 H          18.6036   -3.7156    0.0000 H       1  UNL1        0.2924
    144 H           6.6403   -2.1725    0.0000 H       1  UNL1        0.0815
    145 H          12.2734   -3.7156    0.0000 H       1  UNL1        0.2924
    146 H           8.1523   -4.1093    0.0000 H       1  UNL1        0.0666
    147 H           8.7481   -1.4145    0.0000 H       1  UNL1        0.0851
    148 H          23.0685    1.7674    0.0000 H       1  UNL1        0.2923
    149 H          21.3019   -1.2124    0.0000 H       1  UNL1        0.2923
    150 H          20.5009    7.9831    0.0000 H       1  UNL1        0.2923
    151 H          22.2214    4.9764    0.0000 H       1  UNL1        0.2923
    152 H          23.0526    0.3874    0.0000 H       1  UNL1        0.2924
    153 H           9.4242   -3.4576    0.0000 H       1  UNL1        0.0725
    154 H           8.7547   -2.8914    0.0000 H       1  UNL1        0.0725
    155 H          13.2942    7.8839    0.0000 H       1  UNL1        0.2923
    156 H          17.2916    8.8293    0.0000 H       1  UNL1        0.2923
    157 H          21.6934    7.2885    0.0000 H       1  UNL1        0.2924
    158 H          15.0200    9.5106    0.0000 H       1  UNL1        0.2924
    159 H           8.9256   -0.4303    0.0000 H       1  UNL1        0.1067
    160 H           9.2560   -0.1972    0.0000 H       1  UNL1        0.0665
    161 H           7.3694   -5.0973    0.0000 H       1  UNL1        0.2101
    162 H           6.2042   -6.6247    0.0000 H       1  UNL1        0.0634
    163 H          13.1880    0.3246    0.0000 H       1  UNL1        0.2924
    164 H          10.8607   -6.5026    0.0000 H       1  UNL1        0.0664
    165 H          11.5747    2.0629    0.0000 H       1  UNL1        0.2924
    166 H           9.2626    1.5348    0.0000 H       1  UNL1        0.2923
    167 H           3.7046   -1.9582    0.0000 H       1  UNL1        0.0663
    168 H           5.5164    0.1843    0.0000 H       1  UNL1        0.0663
    169 H           6.0354   -3.8136    0.0000 H       1  UNL1        0.2923
    170 H           9.2080   -6.7944    0.0000 H       1  UNL1        0.2923
    171 H           9.2846   -3.9868    0.0000 H       1  UNL1        0.2924
    172 H           7.4020   -8.4940    0.0000 H       1  UNL1        0.2923
    173 H           9.5729   -9.5106    0.0000 H       1  UNL1        0.2924
    174 H          11.5282   -8.1237    0.0000 H       1  UNL1        0.2923
    175 H           3.8735    2.0048    0.0000 H       1  UNL1        0.2923
    176 H           2.0000   -1.6508    0.0000 H       1  UNL1        0.2923
    177 H           2.5749    1.5378    0.0000 H       1  UNL1        0.2924
@<TRIPOS>BOND
     1     1    51    1
     2     1    53    1
     3     2    49    1
     4     2    55    1
     5     3    50    1
     6     3    56    1
     7     4    52    1
     8     4    57    1
     9     5    53    1
    10     5    59    1
    11     6    54    1
    12     6    60    1
    13     7    55    2
    14     8    56    2
    15     9    57    2
    16    10    59    2
    17    11    60    2
    18    12    68    1
    19    12   139    1
    20    13    69    1
    21    13   140    1
    22    14    77    1
    23    14    94    1
    24    15    73    1
    25    15   141    1
    26    16    76    1
    27    16   143    1
    28    17    78    1
    29    17   145    1
    30    18    81    1
    31    18   148    1
    32    19    82    1
    33    19   149    1
    34    20    83    1
    35    20   150    1
    36    21    84    1
    37    21   151    1
    38    22    85    1
    39    22   152    1
    40    23    86    1
    41    23   155    1
    42    24    87    1
    43    24   156    1
    44    25    88    1
    45    25   157    1
    46    26    89    1
    47    26   158    1
    48    27    90    1
    49    27   102    1
    50    28    91    1
    51    28   104    1
    52    29    93    1
    53    29    98    1
    54    30    92    1
    55    30   161    1
    56    31    95    1
    57    31   108    1
    58    32    97    1
    59    32   163    1
    60    33    98    2
    61    34    99    2
    62    35   101    1
    63    35   165    1
    64    36   103    1
    65    36   166    1
    66    37   102    2
    67    38   104    2
    68    39   111    1
    69    39   169    1
    70    40   108    2
    71    41   113    1
    72    41   170    1
    73    42   114    1
    74    42   171    1
    75    43   115    1
    76    43   172    1
    77    44   117    1
    78    44   173    1
    79    45   120    1
    80    45   174    1
    81    46   121    1
    82    46   175    1
    83    47   122    1
    84    47   176    1
    85    48   123    1
    86    48   177    1
    87    49    50    1
    88    49    51    1
    89    49   124    1
    90    50    52    1
    91    50   125    1
    92    51    54    1
    93    51   126    1
    94    52    53    1
    95    52   127    1
    96    53   128    1
    97    54   129    1
    98    54   130    1
    99    55    58    1
   100    56    63    1
   101    57    65    1
   102    58    61   ar
   103    58    67   ar
   104    59    66    1
   105    60    62    1
   106    61    64    1
   107    61    68   ar
   108    62    64   ar
   109    62    70   ar
   110    63    71   ar
   111    63    72   ar
   112    64    69   ar
   113    65    74   ar
   114    65    75   ar
   115    66    79   ar
   116    66    80   ar
   117    67    73   ar
   118    67   131    1
   119    68    76   ar
   120    69    78   ar
   121    70    77   ar
   122    70   132    1
   123    71    82   ar
   124    71   133    1
   125    72    81   ar
   126    72   134    1
   127    73    76   ar
   128    74    84   ar
   129    74   135    1
   130    75    83   ar
   131    75   136    1
   132    77    78   ar
   133    79    87   ar
   134    79   137    1
   135    80    86   ar
   136    80   138    1
   137    81    85   ar
   138    82    85   ar
   139    83    88   ar
   140    84    88   ar
   141    86    89   ar
   142    87    89   ar
   143    90    91    1
   144    90    92    1
   145    90   142    1
   146    91    93    1
   147    91   144    1
   148    92    95    1
   149    92   146    1
   150    93    99    1
   151    93   147    1
   152    94    96   ar
   153    94    97   ar
   154    95   153    1
   155    95   154    1
   156    96    98    1
   157    96   100   ar
   158    97   101   ar
   159    99   159    1
   160   100   103   ar
   161   100   160    1
   162   101   103   ar
   163   102   105    1
   164   104   112    1
   165   105   110   ar
   166   105   111   ar
   167   106   107    1
   168   106   110   ar
   169   106   113   ar
   170   107   109   ar
   171   107   115   ar
   172   108   109    1
   173   109   116   ar
   174   110   162    1
   175   111   114   ar
   176   112   118   ar
   177   112   119   ar
   178   113   114   ar
   179   115   117   ar
   180   116   120   ar
   181   116   164    1
   182   117   120   ar
   183   118   122   ar
   184   118   167    1
   185   119   121   ar
   186   119   168    1
   187   121   123   ar
   188   122   123   ar
