@<TRIPOS>MOLECULE
IMPHY014526
 78 83 0 0 0
SMALL
GASTEIGER

@<TRIPOS>ATOM
      1 O           3.7998   -3.7998    0.0000 O.3     1  UNL1       -0.3569
      2 O           6.3981   -3.2994    0.0000 O.3     1  UNL1       -0.4585
      3 O           2.9176   -4.3340    0.0000 O.3     1  UNL1       -0.3848
      4 O           8.7042    0.6890    0.0000 O.3     1  UNL1       -0.3849
      5 O           2.9176   -0.2648    0.0000 O.2     1  UNL1       -0.2920
      6 O           9.0542    2.1538    0.0000 O.3     1  UNL1       -0.4549
      7 O           5.5321   -4.7994    0.0000 O.2     1  UNL1       -0.2512
      8 O          10.3522    3.3005    0.0000 O.2     1  UNL1       -0.2453
      9 C           5.5321   -1.7994    0.0000 C.3     1  UNL1        0.0059
     10 C           3.8000   -2.7994    0.0000 C.3     1  UNL1        0.1413
     11 C           4.6660   -1.2994    0.0000 C.3     1  UNL1       -0.0192
     12 C           3.8000   -1.7994    0.0000 C.3     1  UNL1        0.0676
     13 C           6.4421   -1.2925    0.0000 C.3     1  UNL1       -0.0287
     14 C           6.4501   -0.2509    0.0000 C.3     1  UNL1       -0.0233
     15 C           4.6660   -3.2994    0.0000 C.3     1  UNL1        0.1292
     16 C           5.5321   -2.7994    0.0000 C.3     1  UNL1        0.1352
     17 C           7.4381    0.0589    0.0000 C.3     1  UNL1       -0.0032
     18 C           4.6500   -0.2579    0.0000 C.3     1  UNL1       -0.0483
     19 C           5.5480    0.2699    0.0000 C.3     1  UNL1       -0.0467
     20 C           7.4252   -1.6175    0.0000 C.3     1  UNL1       -0.0490
     21 C           2.9061   -3.3340    0.0000 C.3     1  UNL1        0.1062
     22 C           8.0396   -0.7840    0.0000 C.3     1  UNL1       -0.0467
     23 C           3.8000   -0.7994    0.0000 C.3     1  UNL1       -0.0494
     24 C           2.9061   -1.2647    0.0000 C.2     1  UNL1        0.1649
     25 C           6.4578    0.7490    0.0000 C.3     1  UNL1       -0.0590
     26 C           7.7561    1.0070    0.0000 C.3     1  UNL1        0.1036
     27 C           2.0000   -2.8202    0.0000 C.2     1  UNL1       -0.0497
     28 C           2.0000   -1.7786    0.0000 C.2     1  UNL1       -0.0200
     29 C           8.0741    1.9551    0.0000 C.3     1  UNL1        0.1355
     30 C           6.8080    1.3250    0.0000 C.3     1  UNL1       -0.0323
     31 C           6.3981   -4.2994    0.0000 C.2     1  UNL1        0.3043
     32 C           7.4120    2.7045    0.0000 C.3     1  UNL1        0.0088
     33 C           7.7300    3.6526    0.0000 C.2     1  UNL1       -0.0594
     34 C           7.2641   -4.7994    0.0000 C.3     1  UNL1        0.0332
     35 C           9.3721    3.1019    0.0000 C.2     1  UNL1        0.3352
     36 C           8.7100    3.8513    0.0000 C.2     1  UNL1        0.0326
     37 C           7.0679    4.4020    0.0000 C.3     1  UNL1       -0.0429
     38 C           9.0280    4.7994    0.0000 C.3     1  UNL1       -0.0330
     39 H           6.2649   -2.2300    0.0000 H       1  UNL1        0.0343
     40 H           5.3989   -0.8687    0.0000 H       1  UNL1        0.0315
     41 H           6.5222   -2.1387    0.0000 H       1  UNL1        0.0310
     42 H           5.0911   -4.0354    0.0000 H       1  UNL1        0.0664
     43 H           5.5321   -3.4194    0.0000 H       1  UNL1        0.0764
     44 H           8.2788    0.1843    0.0000 H       1  UNL1        0.0335
     45 H           4.4319    0.3225    0.0000 H       1  UNL1        0.0268
     46 H           4.0408   -0.3734    0.0000 H       1  UNL1        0.0268
     47 H           5.9453    0.7459    0.0000 H       1  UNL1        0.0271
     48 H           5.1470    0.7428    0.0000 H       1  UNL1        0.0271
     49 H           7.1698   -2.1825    0.0000 H       1  UNL1        0.0268
     50 H           7.9602   -1.9309    0.0000 H       1  UNL1        0.0268
     51 H           2.3721   -3.6492    0.0000 H       1  UNL1        0.0668
     52 H           8.4972   -1.2023    0.0000 H       1  UNL1        0.0269
     53 H           8.5036   -0.3728    0.0000 H       1  UNL1        0.0269
     54 H           4.4200   -0.7994    0.0000 H       1  UNL1        0.0240
     55 H           3.8000   -0.1794    0.0000 H       1  UNL1        0.0240
     56 H           3.1800   -0.7994    0.0000 H       1  UNL1        0.0240
     57 H           7.0778    0.7443    0.0000 H       1  UNL1        0.0235
     58 H           6.4626    1.3690    0.0000 H       1  UNL1        0.0235
     59 H           5.8378    0.7538    0.0000 H       1  UNL1        0.0235
     60 H           1.4643   -3.1322    0.0000 H       1  UNL1        0.0599
     61 H           1.4643   -1.4665    0.0000 H       1  UNL1        0.0650
     62 H           8.6369    1.3181    0.0000 H       1  UNL1        0.0766
     63 H           7.0052    1.9128    0.0000 H       1  UNL1        0.0259
     64 H           6.2202    1.5221    0.0000 H       1  UNL1        0.0259
     65 H           6.6109    0.7371    0.0000 H       1  UNL1        0.0259
     66 H           2.3843   -4.6502    0.0000 H       1  UNL1        0.2103
     67 H           8.8274    0.0814    0.0000 H       1  UNL1        0.2103
     68 H           6.8673    3.0007    0.0000 H       1  UNL1        0.0347
     69 H           7.0257    2.2196    0.0000 H       1  UNL1        0.0347
     70 H           6.9541   -5.3363    0.0000 H       1  UNL1        0.0342
     71 H           7.8010   -5.1094    0.0000 H       1  UNL1        0.0342
     72 H           7.5741   -4.2624    0.0000 H       1  UNL1        0.0342
     73 H           7.5325    4.8125    0.0000 H       1  UNL1        0.0275
     74 H           6.6574    4.8667    0.0000 H       1  UNL1        0.0275
     75 H           6.6032    3.9915    0.0000 H       1  UNL1        0.0275
     76 H           9.6158    4.6022    0.0000 H       1  UNL1        0.0280
     77 H           9.2252    5.3872    0.0000 H       1  UNL1        0.0280
     78 H           8.4402    4.9965    0.0000 H       1  UNL1        0.0280
@<TRIPOS>BOND
     1    10     1    1
     2     1    15    1
     3     2    16    1
     4     2    31    1
     5     3    21    1
     6     3    66    1
     7    26     4    1
     8     4    67    1
     9     5    24    2
    10     6    29    1
    11     6    35    1
    12     7    31    2
    13     8    35    2
    14     9    11    1
    15     9    13    1
    16     9    16    1
    17     9    39    1
    18    10    12    1
    19    10    15    1
    20    10    21    1
    21    11    12    1
    22    11    18    1
    23    11    40    1
    24    12    23    1
    25    12    24    1
    26    13    14    1
    27    13    20    1
    28    13    41    1
    29    14    17    1
    30    14    19    1
    31    14    25    1
    32    15    16    1
    33    15    42    1
    34    16    43    1
    35    17    22    1
    36    17    26    1
    37    17    44    1
    38    18    19    1
    39    18    45    1
    40    18    46    1
    41    19    47    1
    42    19    48    1
    43    20    22    1
    44    20    49    1
    45    20    50    1
    46    21    27    1
    47    21    51    1
    48    22    52    1
    49    22    53    1
    50    23    54    1
    51    23    55    1
    52    23    56    1
    53    24    28    1
    54    25    57    1
    55    25    58    1
    56    25    59    1
    57    26    29    1
    58    26    30    1
    59    27    28    2
    60    27    60    1
    61    28    61    1
    62    29    32    1
    63    29    62    1
    64    30    63    1
    65    30    64    1
    66    30    65    1
    67    31    34    1
    68    32    33    1
    69    32    68    1
    70    32    69    1
    71    33    36    2
    72    33    37    1
    73    34    70    1
    74    34    71    1
    75    34    72    1
    76    35    36    1
    77    36    38    1
    78    37    73    1
    79    37    74    1
    80    37    75    1
    81    38    76    1
    82    38    77    1
    83    38    78    1
