@<TRIPOS>MOLECULE
IMPHY013709
 46 47 0 0 0
SMALL
GASTEIGER

@<TRIPOS>ATOM
      1 O           4.2690   -0.9050    0.0000 O.3     1  UNL1       -0.3405
      2 O           6.0010   -0.9050    0.0000 O.3     1  UNL1       -0.3446
      3 O           4.2690   -3.9050    0.0000 O.3     1  UNL1       -0.3864
      4 O           2.5369   -2.9050    0.0000 O.3     1  UNL1       -0.3865
      5 O           6.0010   -2.9050    0.0000 O.3     1  UNL1       -0.3841
      6 O           2.5369    0.0950    0.0000 O.3     1  UNL1       -0.3924
      7 O           3.4030    1.5950    0.0000 O.3     1  UNL1       -0.4914
      8 O           3.4030    3.5950    0.0000 O.3     1  UNL1       -0.5033
      9 C           4.2690   -2.9050    0.0000 C.3     1  UNL1        0.1141
     10 C           3.4030   -2.4050    0.0000 C.3     1  UNL1        0.1119
     11 C           5.1350   -2.4050    0.0000 C.3     1  UNL1        0.1341
     12 C           3.4030   -1.4050    0.0000 C.3     1  UNL1        0.1130
     13 C           5.1350   -1.4050    0.0000 C.3     1  UNL1        0.1882
     14 C           2.5369   -0.9050    0.0000 C.3     1  UNL1        0.0730
     15 C           6.0010    0.0950    0.0000 C.3     1  UNL1        0.0693
     16 C           6.8671    0.5950    0.0000 C.2     1  UNL1       -0.0580
     17 C           6.8671    1.5950    0.0000 C.2     1  UNL1       -0.0563
     18 C           6.0010    2.0950    0.0000 C.ar    1  UNL1       -0.0216
     19 C           5.1350    1.5950    0.0000 C.ar    1  UNL1       -0.0092
     20 C           6.0010    3.0950    0.0000 C.ar    1  UNL1       -0.0509
     21 C           4.2690    2.0950    0.0000 C.ar    1  UNL1        0.1618
     22 C           5.1350    3.5950    0.0000 C.ar    1  UNL1       -0.0160
     23 C           4.2690    3.0950    0.0000 C.ar    1  UNL1        0.1585
     24 C           2.5369    2.0950    0.0000 C.3     1  UNL1        0.0790
     25 H           3.7320   -3.2150    0.0000 H       1  UNL1        0.0648
     26 H           3.4030   -3.0250    0.0000 H       1  UNL1        0.0647
     27 H           5.1350   -3.0250    0.0000 H       1  UNL1        0.0671
     28 H           3.4030   -0.7850    0.0000 H       1  UNL1        0.0647
     29 H           5.1350   -0.7850    0.0000 H       1  UNL1        0.0938
     30 H           1.9264   -0.7973    0.0000 H       1  UNL1        0.0584
     31 H           2.3249   -1.4876    0.0000 H       1  UNL1        0.0584
     32 H           3.7320   -4.2150    0.0000 H       1  UNL1        0.2100
     33 H           2.0000   -2.5950    0.0000 H       1  UNL1        0.2100
     34 H           6.5380   -2.5950    0.0000 H       1  UNL1        0.2101
     35 H           5.7890    0.6776    0.0000 H       1  UNL1        0.0605
     36 H           5.3905   -0.0127    0.0000 H       1  UNL1        0.0605
     37 H           2.0000    0.4050    0.0000 H       1  UNL1        0.2095
     38 H           7.4040    0.2850    0.0000 H       1  UNL1        0.0595
     39 H           7.4040    1.9050    0.0000 H       1  UNL1        0.0621
     40 H           5.1350    0.9750    0.0000 H       1  UNL1        0.0661
     41 H           6.5380    3.4050    0.0000 H       1  UNL1        0.0625
     42 H           5.1350    4.2150    0.0000 H       1  UNL1        0.0655
     43 H           3.4030    4.2150    0.0000 H       1  UNL1        0.2923
     44 H           2.8469    2.6319    0.0000 H       1  UNL1        0.0660
     45 H           2.0000    2.4050    0.0000 H       1  UNL1        0.0660
     46 H           2.2269    1.5581    0.0000 H       1  UNL1        0.0660
@<TRIPOS>BOND
     1     1    12    1
     2     1    13    1
     3     2    13    1
     4     2    15    1
     5     3     9    1
     6     3    32    1
     7     4    10    1
     8     4    33    1
     9     5    11    1
    10     5    34    1
    11     6    14    1
    12     6    37    1
    13     7    21    1
    14     7    24    1
    15     8    23    1
    16     8    43    1
    17     9    10    1
    18     9    11    1
    19     9    25    1
    20    10    12    1
    21    10    26    1
    22    11    13    1
    23    11    27    1
    24    12    14    1
    25    12    28    1
    26    13    29    1
    27    14    30    1
    28    14    31    1
    29    15    16    1
    30    15    35    1
    31    15    36    1
    32    16    17    2
    33    16    38    1
    34    17    18    1
    35    17    39    1
    36    18    19   ar
    37    18    20   ar
    38    19    21   ar
    39    19    40    1
    40    20    22   ar
    41    20    41    1
    42    21    23   ar
    43    22    23   ar
    44    22    42    1
    45    24    44    1
    46    24    45    1
    47    24    46    1
