@<TRIPOS>MOLECULE
IMPHY000573
 30 31 0 0 0
SMALL
GASTEIGER

@<TRIPOS>ATOM
      1 C           5.3742    0.6698    0.0000 C.ar    1  UNL1       -0.0145
      2 C           5.3792   -0.3302    0.0000 C.ar    1  UNL1       -0.0147
      3 C           6.3189    0.9793    0.0000 C.ar    1  UNL1       -0.0427
      4 C           4.6005   -0.9575    0.0000 C.ar    1  UNL1       -0.0427
      5 C           3.6155    1.0620    0.0000 C.ar    1  UNL1       -0.0470
      6 C           4.5893    1.2894    0.0000 C.ar    1  UNL1       -0.0506
      7 C           6.3269   -0.6302    0.0000 C.ar    1  UNL1       -0.0535
      8 C           6.9065    0.1775    0.0000 C.ar    1  UNL1       -0.0577
      9 C           2.9881    1.8408    0.0000 C.3     1  UNL1       -0.0305
     10 C           3.6244   -0.7399    0.0000 C.ar    1  UNL1       -0.0580
     11 C           3.1861    0.1589    0.0000 C.ar    1  UNL1       -0.0583
     12 C           6.6248    1.9313    0.0000 C.3     1  UNL1       -0.0391
     13 C           4.8278   -1.9313    0.0000 C.3     1  UNL1       -0.0391
     14 C           2.0000    1.6868    0.0000 C.3     1  UNL1       -0.0613
     15 H           4.7242    1.8946    0.0000 H       1  UNL1        0.0626
     16 H           6.5224   -1.2185    0.0000 H       1  UNL1        0.0624
     17 H           7.5265    0.1806    0.0000 H       1  UNL1        0.0621
     18 H           3.5311    2.1400    0.0000 H       1  UNL1        0.0311
     19 H           2.7877    2.4275    0.0000 H       1  UNL1        0.0311
     20 H           3.2403   -1.2265    0.0000 H       1  UNL1        0.0620
     21 H           2.5661    0.1558    0.0000 H       1  UNL1        0.0620
     22 H           7.2151    1.7417    0.0000 H       1  UNL1        0.0278
     23 H           6.8145    2.5216    0.0000 H       1  UNL1        0.0278
     24 H           6.0345    2.1210    0.0000 H       1  UNL1        0.0278
     25 H           4.2241   -2.0723    0.0000 H       1  UNL1        0.0278
     26 H           4.9688   -2.5351    0.0000 H       1  UNL1        0.0278
     27 H           5.4316   -1.7904    0.0000 H       1  UNL1        0.0278
     28 H           1.9045    2.2994    0.0000 H       1  UNL1        0.0233
     29 H           1.3874    1.5913    0.0000 H       1  UNL1        0.0233
     30 H           2.0955    1.0742    0.0000 H       1  UNL1        0.0233
@<TRIPOS>BOND
     1     1     2    1
     2     1     3   ar
     3     1     6   ar
     4     2     4   ar
     5     2     7   ar
     6     3     8   ar
     7     3    12    1
     8     4    10   ar
     9     4    13    1
    10     5     6   ar
    11     5     9    1
    12     5    11   ar
    13     6    15    1
    14     7     8   ar
    15     7    16    1
    16     8    17    1
    17     9    14    1
    18     9    18    1
    19     9    19    1
    20    10    11   ar
    21    10    20    1
    22    11    21    1
    23    12    22    1
    24    12    23    1
    25    12    24    1
    26    13    25    1
    27    13    26    1
    28    13    27    1
    29    14    28    1
    30    14    29    1
    31    14    30    1
