@<TRIPOS>MOLECULE
IMPHY010868
 71 75 0 0 0
SMALL
GASTEIGER

@<TRIPOS>ATOM
      1 O           6.5271    1.2991    0.0000 O.3     1  UNL1       -0.4572
      2 O           4.7950    0.2991    0.0000 O.3     1  UNL1       -0.4538
      3 O           8.8774    1.7502    0.0000 O.2     1  UNL1       -0.2974
      4 O           2.0000   -3.2532    0.0000 O.2     1  UNL1       -0.2971
      5 O           8.0271    2.1651    0.0000 O.2     1  UNL1       -0.2512
      6 O           5.6610    1.7991    0.0000 O.2     1  UNL1       -0.2449
      7 N           2.1969    1.7991    0.0000 N.ar    1  UNL1       -0.2624
      8 C           7.3931   -0.2009    0.0000 C.3     1  UNL1        0.0211
      9 C           7.3931   -1.2009    0.0000 C.3     1  UNL1       -0.0280
     10 C           6.5271   -1.7009    0.0000 C.3     1  UNL1       -0.0270
     11 C           5.6610   -1.2009    0.0000 C.3     1  UNL1        0.0122
     12 C           6.5271    0.2991    0.0000 C.3     1  UNL1        0.1462
     13 C           5.6610   -0.2009    0.0000 C.3     1  UNL1        0.1444
     14 C           8.3393    0.1038    0.0000 C.3     1  UNL1        0.0264
     15 C           4.7510   -1.7078    0.0000 C.3     1  UNL1       -0.0037
     16 C           8.3393   -1.5056    0.0000 C.3     1  UNL1       -0.0486
     17 C           8.9229   -0.7009    0.0000 C.3     1  UNL1       -0.0426
     18 C           6.5431   -2.7424    0.0000 C.3     1  UNL1       -0.0310
     19 C           7.3931    0.7991    0.0000 C.3     1  UNL1       -0.0551
     20 C           4.7430   -2.7494    0.0000 C.2     1  UNL1       -0.0601
     21 C           3.8242   -1.1437    0.0000 C.3     1  UNL1       -0.0368
     22 C           5.6451   -3.2702    0.0000 C.2     1  UNL1       -0.0836
     23 C           4.7587   -0.7078    0.0000 C.3     1  UNL1       -0.0554
     24 C           9.0836    0.7717    0.0000 C.2     1  UNL1        0.1340
     25 C           3.8076   -3.2991    0.0000 C.3     1  UNL1        0.0275
     26 C           2.8763   -1.6716    0.0000 C.3     1  UNL1        0.0069
     27 C           2.8680   -2.7566    0.0000 C.2     1  UNL1        0.1374
     28 C          10.0341    0.4610    0.0000 C.3     1  UNL1       -0.0058
     29 C           7.0271    2.1651    0.0000 C.2     1  UNL1        0.3043
     30 C           4.7950    1.2991    0.0000 C.2     1  UNL1        0.3410
     31 C           6.5271    3.0311    0.0000 C.3     1  UNL1        0.0332
     32 C           3.9290    1.7991    0.0000 C.ar    1  UNL1        0.0770
     33 C           3.9290    2.7991    0.0000 C.ar    1  UNL1       -0.0449
     34 C           3.0630    1.2991    0.0000 C.ar    1  UNL1        0.0415
     35 C           3.0630    3.2991    0.0000 C.ar    1  UNL1       -0.0428
     36 C           2.1969    2.7991    0.0000 C.ar    1  UNL1        0.0276
     37 H           7.4830   -2.0461    0.0000 H       1  UNL1        0.0310
     38 H           7.2664   -2.1202    0.0000 H       1  UNL1        0.0311
     39 H           6.3972   -0.7759    0.0000 H       1  UNL1        0.0349
     40 H           5.9901    0.6091    0.0000 H       1  UNL1        0.0777
     41 H           5.6610    0.4191    0.0000 H       1  UNL1        0.0775
     42 H           8.0305    0.6414    0.0000 H       1  UNL1        0.0384
     43 H           8.0883   -2.0726    0.0000 H       1  UNL1        0.0268
     44 H           8.8767   -1.8149    0.0000 H       1  UNL1        0.0268
     45 H           9.3838   -1.1156    0.0000 H       1  UNL1        0.0272
     46 H           9.3838   -0.2862    0.0000 H       1  UNL1        0.0272
     47 H           6.7612   -3.3228    0.0000 H       1  UNL1        0.0310
     48 H           7.1523   -2.6269    0.0000 H       1  UNL1        0.0310
     49 H           8.0131    0.7991    0.0000 H       1  UNL1        0.0237
     50 H           7.3931    1.4191    0.0000 H       1  UNL1        0.0237
     51 H           6.7731    0.7991    0.0000 H       1  UNL1        0.0237
     52 H           4.2324   -0.6770    0.0000 H       1  UNL1        0.0278
     53 H           3.4343   -0.6616    0.0000 H       1  UNL1        0.0278
     54 H           5.6475   -3.8902    0.0000 H       1  UNL1        0.0572
     55 H           5.3787   -0.7126    0.0000 H       1  UNL1        0.0238
     56 H           4.7635   -0.0878    0.0000 H       1  UNL1        0.0238
     57 H           4.1388   -0.7030    0.0000 H       1  UNL1        0.0238
     58 H           3.4103   -3.7751    0.0000 H       1  UNL1        0.0387
     59 H           4.2085   -3.7720    0.0000 H       1  UNL1        0.0387
     60 H           2.6718   -1.0863    0.0000 H       1  UNL1        0.0342
     61 H           2.2647   -1.7730    0.0000 H       1  UNL1        0.0342
     62 H           9.8415   -0.1283    0.0000 H       1  UNL1        0.0306
     63 H          10.6234    0.2684    0.0000 H       1  UNL1        0.0306
     64 H          10.2267    1.0503    0.0000 H       1  UNL1        0.0306
     65 H           7.0640    3.3411    0.0000 H       1  UNL1        0.0342
     66 H           6.2171    3.5681    0.0000 H       1  UNL1        0.0342
     67 H           5.9901    2.7211    0.0000 H       1  UNL1        0.0342
     68 H           4.4659    3.1091    0.0000 H       1  UNL1        0.0627
     69 H           3.0630    0.6791    0.0000 H       1  UNL1        0.0838
     70 H           3.0630    3.9191    0.0000 H       1  UNL1        0.0633
     71 H           1.6600    3.1091    0.0000 H       1  UNL1        0.0829
@<TRIPOS>BOND
     1    12     1    1
     2     1    29    1
     3    13     2    1
     4     2    30    1
     5     3    24    2
     6     4    27    2
     7     5    29    2
     8     6    30    2
     9     7    34   ar
    10     7    36   ar
    11     8     9    1
    12     8    12    1
    13     8    14    1
    14     8    19    1
    15     9    10    1
    16     9    16    1
    17     9    37    1
    18    10    11    1
    19    10    18    1
    20    10    38    1
    21    11    13    1
    22    11    15    1
    23    11    39    1
    24    12    13    1
    25    12    40    1
    26    13    41    1
    27    14    17    1
    28    14    24    1
    29    14    42    1
    30    15    20    1
    31    15    21    1
    32    15    23    1
    33    16    17    1
    34    16    43    1
    35    16    44    1
    36    17    45    1
    37    17    46    1
    38    18    22    1
    39    18    47    1
    40    18    48    1
    41    19    49    1
    42    19    50    1
    43    19    51    1
    44    20    22    2
    45    20    25    1
    46    21    26    1
    47    21    52    1
    48    21    53    1
    49    22    54    1
    50    23    55    1
    51    23    56    1
    52    23    57    1
    53    24    28    1
    54    25    27    1
    55    25    58    1
    56    25    59    1
    57    26    27    1
    58    26    60    1
    59    26    61    1
    60    28    62    1
    61    28    63    1
    62    28    64    1
    63    29    31    1
    64    30    32    1
    65    31    65    1
    66    31    66    1
    67    31    67    1
    68    32    33   ar
    69    32    34   ar
    70    33    35   ar
    71    33    68    1
    72    34    69    1
    73    35    36   ar
    74    35    70    1
    75    36    71    1
