@<TRIPOS>MOLECULE
IMPHY000166
 59 63 0 0 0
SMALL
GASTEIGER

@<TRIPOS>ATOM
      1 O           7.9288   -2.0254    0.0000 O.3     1  UNL1       -0.3877
      2 O           2.5357   -3.0778    0.0000 O.3     1  UNL1       -0.3915
      3 O           9.1885    2.8479    0.0000 O.3     1  UNL1       -0.4571
      4 O          10.9491    3.1236    0.0000 O.2     1  UNL1       -0.2456
      5 C           7.9288   -1.0254    0.0000 C.3     1  UNL1        0.0754
      6 C           7.9288   -0.0254    0.0000 C.3     1  UNL1        0.0036
      7 C           7.0628   -1.5254    0.0000 C.3     1  UNL1       -0.0046
      8 C           6.1968   -1.0254    0.0000 C.3     1  UNL1       -0.0262
      9 C           8.8750    0.2793    0.0000 C.3     1  UNL1       -0.0081
     10 C           5.2868   -1.5323    0.0000 C.3     1  UNL1       -0.0077
     11 C           7.0628    0.4746    0.0000 C.3     1  UNL1       -0.0442
     12 C           8.8750   -1.3302    0.0000 C.3     1  UNL1       -0.0226
     13 C           6.1968   -0.0254    0.0000 C.3     1  UNL1       -0.0485
     14 C           9.4586   -0.5254    0.0000 C.3     1  UNL1       -0.0432
     15 C           7.0789   -2.5669    0.0000 C.3     1  UNL1       -0.0287
     16 C           7.9288    0.9746    0.0000 C.3     1  UNL1       -0.0564
     17 C           5.2787   -2.5739    0.0000 C.2     1  UNL1       -0.0648
     18 C           4.3599   -0.9682    0.0000 C.3     1  UNL1       -0.0413
     19 C           6.1808   -3.0947    0.0000 C.2     1  UNL1       -0.0838
     20 C           9.1857    1.2298    0.0000 C.2     1  UNL1       -0.0222
     21 C           5.2945   -0.5323    0.0000 C.3     1  UNL1       -0.0556
     22 C           4.3433   -3.1236    0.0000 C.3     1  UNL1       -0.0051
     23 C           3.4120   -1.4961    0.0000 C.3     1  UNL1       -0.0258
     24 C           3.4037   -2.5811    0.0000 C.3     1  UNL1        0.0590
     25 C           8.5993    2.0399    0.0000 C.3     1  UNL1        0.1147
     26 C          10.1373    1.5372    0.0000 C.2     1  UNL1        0.0252
     27 C          10.1390    2.5372    0.0000 C.2     1  UNL1        0.3323
     28 H           7.8022   -1.9447    0.0000 H       1  UNL1        0.0335
     29 H           6.9329   -0.6004    0.0000 H       1  UNL1        0.0313
     30 H           9.7148    0.4112    0.0000 H       1  UNL1        0.0353
     31 H           7.4613    0.9495    0.0000 H       1  UNL1        0.0272
     32 H           6.6643    0.9495    0.0000 H       1  UNL1        0.0272
     33 H           8.6240   -1.8971    0.0000 H       1  UNL1        0.0293
     34 H           9.4124   -1.6394    0.0000 H       1  UNL1        0.0293
     35 H           5.9847    0.5572    0.0000 H       1  UNL1        0.0268
     36 H           5.5862   -0.1331    0.0000 H       1  UNL1        0.0268
     37 H           9.9195   -0.9401    0.0000 H       1  UNL1        0.0272
     38 H           9.9195   -0.1107    0.0000 H       1  UNL1        0.0272
     39 H           7.2969   -3.1473    0.0000 H       1  UNL1        0.0311
     40 H           7.6880   -2.4514    0.0000 H       1  UNL1        0.0311
     41 H           8.5488    0.9746    0.0000 H       1  UNL1        0.0236
     42 H           7.9288    1.5946    0.0000 H       1  UNL1        0.0236
     43 H           7.3088    0.9746    0.0000 H       1  UNL1        0.0236
     44 H           4.7681   -0.5015    0.0000 H       1  UNL1        0.0274
     45 H           3.9700   -0.4861    0.0000 H       1  UNL1        0.0274
     46 H           6.1832   -3.7147    0.0000 H       1  UNL1        0.0572
     47 H           8.4658   -2.3354    0.0000 H       1  UNL1        0.2102
     48 H           5.9145   -0.5371    0.0000 H       1  UNL1        0.0238
     49 H           5.2993    0.0877    0.0000 H       1  UNL1        0.0238
     50 H           4.6745   -0.5275    0.0000 H       1  UNL1        0.0238
     51 H           3.9460   -3.5996    0.0000 H       1  UNL1        0.0335
     52 H           4.7443   -3.5965    0.0000 H       1  UNL1        0.0335
     53 H           3.2075   -0.9108    0.0000 H       1  UNL1        0.0290
     54 H           2.8004   -1.5975    0.0000 H       1  UNL1        0.0290
     55 H           2.8686   -2.2680    0.0000 H       1  UNL1        0.0596
     56 H           8.1393    2.4555    0.0000 H       1  UNL1        0.0746
     57 H           8.1378    1.6258    0.0000 H       1  UNL1        0.0746
     58 H          10.6383    1.1719    0.0000 H       1  UNL1        0.0689
     59 H           2.0000   -2.7657    0.0000 H       1  UNL1        0.2098
@<TRIPOS>BOND
     1     5     1    1
     2     1    47    1
     3    24     2    1
     4     2    59    1
     5     3    25    1
     6     3    27    1
     7     4    27    2
     8     5     6    1
     9     5     7    1
    10     5    12    1
    11     6     9    1
    12     6    11    1
    13     6    16    1
    14     7     8    1
    15     7    15    1
    16     7    28    1
    17     8    10    1
    18     8    13    1
    19     8    29    1
    20     9    14    1
    21     9    20    1
    22     9    30    1
    23    10    17    1
    24    10    18    1
    25    10    21    1
    26    11    13    1
    27    11    31    1
    28    11    32    1
    29    12    14    1
    30    12    33    1
    31    12    34    1
    32    13    35    1
    33    13    36    1
    34    14    37    1
    35    14    38    1
    36    15    19    1
    37    15    39    1
    38    15    40    1
    39    16    41    1
    40    16    42    1
    41    16    43    1
    42    17    19    2
    43    17    22    1
    44    18    23    1
    45    18    44    1
    46    18    45    1
    47    19    46    1
    48    20    25    1
    49    20    26    2
    50    21    48    1
    51    21    49    1
    52    21    50    1
    53    22    24    1
    54    22    51    1
    55    22    52    1
    56    23    24    1
    57    23    53    1
    58    23    54    1
    59    24    55    1
    60    25    56    1
    61    25    57    1
    62    26    27    1
    63    26    58    1
