@<TRIPOS>MOLECULE
IMPHY003456
 18 18 0 0 0
SMALL
GASTEIGER

@<TRIPOS>ATOM
      1 OD          6.1807    1.5236    0.0000 O.3     1  HYP1       -0.3905
      2 O           2.5896    0.1237    0.0000 O.3     1  HYP1       -0.4795
      3 OXT         3.1249   -1.5236    0.0000 O.2     1  HYP1       -0.2492
      4 N           5.0929   -0.8242    0.0000 N.3     1  HYP1       -0.3016
      5 CB          4.5929    0.7146    0.0000 C.3     1  HYP1        0.0002
      6 CA          4.2839   -0.2365    0.0000 C.3     1  HYP1        0.1082
      7 CG          5.5929    0.7146    0.0000 C.3     1  HYP1        0.0696
      8 CD          5.9019   -0.2365    0.0000 C.3     1  HYP1        0.0227
      9 C           3.3328   -0.5455    0.0000 C.2     1  HYP1        0.3220
     10 HB1         4.6577    1.3312    0.0000 H       1  HYP1        0.0311
     11 HB2         3.9864    0.8435    0.0000 H       1  HYP1        0.0311
     12 HA          4.1869   -0.8488    0.0000 H       1  HYP1        0.0577
     13 HG          6.2052    0.6176    0.0000 H       1  HYP1        0.0606
     14 HD1         6.2119   -0.7734    0.0000 H       1  HYP1        0.0449
     15 HD2         6.4683    0.0157    0.0000 H       1  HYP1        0.0449
     16 H           5.0929   -1.4442    0.0000 H       1  HYP1        0.1228
     17 HD          6.7973    1.4588    0.0000 H       1  HYP1        0.2098
     18 H           2.0000   -0.0679    0.0000 H       1  HYP1        0.2951
@<TRIPOS>BOND
     1     7     1    1
     2     1    17    1
     3     2     9    1
     4     2    18    1
     5     3     9    2
     6     4     6    1
     7     4     8    1
     8     4    16    1
     9     5     6    1
    10     5     7    1
    11     5    10    1
    12     5    11    1
    13     6     9    1
    14     6    12    1
    15     7     8    1
    16     7    13    1
    17     8    14    1
    18     8    15    1
