@<TRIPOS>MOLECULE
IMPHY008614
 32 34 0 0 0
SMALL
GASTEIGER

@<TRIPOS>ATOM
      1 O           6.3617   -0.2429    0.0000 O.2     1  UNL1       -0.4904
      2 O           2.9042    1.7519    0.0000 O.2     1  UNL1       -0.2832
      3 O           4.6362    2.7519    0.0000 O.2     1  UNL1       -0.2834
      4 C           5.5294   -1.7524    0.0000 C.3     1  UNL1        0.0162
      5 C           4.6523   -1.2896    0.0000 C.ar    1  UNL1       -0.0300
      6 C           4.6362   -0.2481    0.0000 C.ar    1  UNL1        0.0317
      7 C           6.3751   -1.2345    0.0000 C.3     1  UNL1        0.0962
      8 C           5.5022    0.2519    0.0000 C.2     1  UNL1        0.1352
      9 C           3.7702    0.2519    0.0000 C.ar    1  UNL1        0.0393
     10 C           3.7542   -1.8174    0.0000 C.ar    1  UNL1       -0.0572
     11 C           5.5614   -2.7519    0.0000 C.3     1  UNL1       -0.0553
     12 C           2.8602   -0.2550    0.0000 C.ar    1  UNL1       -0.0388
     13 C           5.5022    1.2519    0.0000 C.2     1  UNL1        0.0423
     14 C           3.7702    1.2519    0.0000 C.2     1  UNL1        0.2336
     15 C           2.8522   -1.2966    0.0000 C.ar    1  UNL1       -0.0579
     16 C           4.6362    1.7519    0.0000 C.2     1  UNL1        0.2322
     17 C           2.0000    0.2550    0.0000 C.3     1  UNL1       -0.0390
     18 C           6.3683    1.7519    0.0000 C.3     1  UNL1       -0.0324
     19 H           6.0751   -2.0467    0.0000 H       1  UNL1        0.0379
     20 H           6.5998   -1.8124    0.0000 H       1  UNL1        0.0702
     21 H           6.9837   -1.1161    0.0000 H       1  UNL1        0.0702
     22 H           3.7566   -2.4374    0.0000 H       1  UNL1        0.0621
     23 H           4.9417   -2.7717    0.0000 H       1  UNL1        0.0237
     24 H           5.5812   -3.3716    0.0000 H       1  UNL1        0.0237
     25 H           6.1810   -2.7320    0.0000 H       1  UNL1        0.0237
     26 H           2.3140   -1.6045    0.0000 H       1  UNL1        0.0620
     27 H           2.3162    0.7883    0.0000 H       1  UNL1        0.0278
     28 H           1.4667    0.5712    0.0000 H       1  UNL1        0.0278
     29 H           1.6838   -0.2783    0.0000 H       1  UNL1        0.0278
     30 H           6.6783    1.2149    0.0000 H       1  UNL1        0.0280
     31 H           6.9052    2.0619    0.0000 H       1  UNL1        0.0280
     32 H           6.0583    2.2888    0.0000 H       1  UNL1        0.0280
@<TRIPOS>BOND
     1     1     7    1
     2     1     8    1
     3     2    14    2
     4     3    16    2
     5     4     5    1
     6     4     7    1
     7     4    11    1
     8     4    19    1
     9     5     6   ar
    10     5    10   ar
    11     6     8    1
    12     6     9   ar
    13     7    20    1
    14     7    21    1
    15     8    13    2
    16     9    12   ar
    17     9    14    1
    18    10    15   ar
    19    10    22    1
    20    11    23    1
    21    11    24    1
    22    11    25    1
    23    12    15   ar
    24    12    17    1
    25    13    16    1
    26    13    18    1
    27    14    16    1
    28    15    26    1
    29    17    27    1
    30    17    28    1
    31    17    29    1
    32    18    30    1
    33    18    31    1
    34    18    32    1
