@<TRIPOS>MOLECULE
IMPHY012333
 66 72 0 0 0
SMALL
GASTEIGER

@<TRIPOS>ATOM
      1 O           4.7126    1.5265    0.0000 O.3     1  UNL1       -0.4444
      2 O           8.1775    1.6399    0.0000 O.3     1  UNL1       -0.4444
      3 O           6.1226   -1.6198    0.0000 O.3     1  UNL1       -0.4808
      4 O           5.5092    3.6862    0.0000 O.3     1  UNL1       -0.3827
      5 O           5.0263   -4.1842    0.0000 O.3     1  UNL1       -0.3875
      6 O           2.5127   -1.3503    0.0000 O.3     1  UNL1       -0.5063
      7 O           7.1214   -1.5745    0.0000 O.3     1  UNL1       -0.5062
      8 O          10.6198   -1.0342    0.0000 O.3     1  UNL1       -0.5065
      9 O           9.1953    4.2871    0.0000 O.3     1  UNL1       -0.5033
     10 O           7.7811    5.7013    0.0000 O.3     1  UNL1       -0.5033
     11 O           7.6181   -5.7990    0.0000 O.3     1  UNL1       -0.5033
     12 O           9.4054   -4.9015    0.0000 O.3     1  UNL1       -0.5033
     13 C           6.4870    0.8717    0.0000 C.3     1  UNL1        0.0567
     14 C           6.0092    2.8202    0.0000 C.3     1  UNL1        0.1477
     15 C           6.7458    1.8376    0.0000 C.3     1  UNL1        0.3074
     16 C           5.2660    0.0060    0.0000 C.ar    1  UNL1        0.0469
     17 C           7.7587    0.0770    0.0000 C.ar    1  UNL1        0.0463
     18 C           4.4370    0.5652    0.0000 C.ar    1  UNL1        0.1365
     19 C           5.2094   -1.0341    0.0000 C.ar    1  UNL1        0.1355
     20 C           8.5358    0.7064    0.0000 C.ar    1  UNL1        0.1365
     21 C           4.2767   -1.4979    0.0000 C.ar    1  UNL1        0.0387
     22 C           7.0046    2.8035    0.0000 C.ar    1  UNL1        0.0424
     23 C           4.1927   -2.5796    0.0000 C.3     1  UNL1        0.0092
     24 C           5.0922   -3.1864    0.0000 C.3     1  UNL1        0.1004
     25 C           6.0637   -2.7032    0.0000 C.3     1  UNL1        0.1513
     26 C           3.4938    0.1231    0.0000 C.ar    1  UNL1        0.0225
     27 C           3.4131   -0.9154    0.0000 C.ar    1  UNL1        0.1271
     28 C           7.9058   -0.9542    0.0000 C.ar    1  UNL1        0.1276
     29 C           9.5139    0.3481    0.0000 C.ar    1  UNL1        0.0222
     30 C           7.9706    3.0623    0.0000 C.ar    1  UNL1       -0.0059
     31 C           6.2975    3.5106    0.0000 C.ar    1  UNL1       -0.0475
     32 C           6.8991   -3.2528    0.0000 C.ar    1  UNL1       -0.0012
     33 C           8.8753   -1.3349    0.0000 C.ar    1  UNL1        0.0218
     34 C           9.6848   -0.6794    0.0000 C.ar    1  UNL1        0.1238
     35 C           8.2294    4.0283    0.0000 C.ar    1  UNL1        0.1587
     36 C           6.5564    4.4766    0.0000 C.ar    1  UNL1       -0.0160
     37 C           6.8409   -4.2511    0.0000 C.ar    1  UNL1       -0.0098
     38 C           7.5223    4.7354    0.0000 C.ar    1  UNL1        0.1582
     39 C           7.7928   -2.8041    0.0000 C.ar    1  UNL1       -0.0513
     40 C           7.6763   -4.8007    0.0000 C.ar    1  UNL1        0.1586
     41 C           8.6282   -3.3536    0.0000 C.ar    1  UNL1       -0.0162
     42 C           8.5700   -4.3519    0.0000 C.ar    1  UNL1        0.1582
     43 H           6.2670    0.0506    0.0000 H       1  UNL1        0.0430
     44 H           6.5266    3.1618    0.0000 H       1  UNL1        0.0685
     45 H           3.5919   -2.4266    0.0000 H       1  UNL1        0.0342
     46 H           3.9390   -3.1454    0.0000 H       1  UNL1        0.0342
     47 H           5.6082   -3.5301    0.0000 H       1  UNL1        0.0637
     48 H           6.6172   -2.4239    0.0000 H       1  UNL1        0.0811
     49 H           2.9838    0.4757    0.0000 H       1  UNL1        0.0691
     50 H           4.8892    3.6862    0.0000 H       1  UNL1        0.2102
     51 H           9.9912    0.7438    0.0000 H       1  UNL1        0.0691
     52 H           8.4090    2.6239    0.0000 H       1  UNL1        0.0660
     53 H           5.6987    3.3502    0.0000 H       1  UNL1        0.0624
     54 H           8.9699   -1.9477    0.0000 H       1  UNL1        0.0691
     55 H           4.4700   -4.4581    0.0000 H       1  UNL1        0.2100
     56 H           6.1180    4.9150    0.0000 H       1  UNL1        0.0655
     57 H           2.0000   -1.0017    0.0000 H       1  UNL1        0.2921
     58 H           7.2113   -2.1879    0.0000 H       1  UNL1        0.2921
     59 H           6.2868   -4.5293    0.0000 H       1  UNL1        0.0659
     60 H           7.8289   -2.1851    0.0000 H       1  UNL1        0.0623
     61 H          11.1001   -0.6422    0.0000 H       1  UNL1        0.2921
     62 H           9.1823   -3.0754    0.0000 H       1  UNL1        0.0655
     63 H           9.3558    4.8860    0.0000 H       1  UNL1        0.2923
     64 H           7.3427    6.1397    0.0000 H       1  UNL1        0.2923
     65 H           8.1361   -6.1397    0.0000 H       1  UNL1        0.2923
     66 H           9.9595   -4.6233    0.0000 H       1  UNL1        0.2923
@<TRIPOS>BOND
     1     1    15    1
     2     1    18    1
     3     2    15    1
     4     2    20    1
     5     3    19    1
     6     3    25    1
     7    14     4    1
     8     4    50    1
     9    24     5    1
    10     5    55    1
    11     6    27    1
    12     6    57    1
    13     7    28    1
    14     7    58    1
    15     8    34    1
    16     8    61    1
    17     9    35    1
    18     9    63    1
    19    10    38    1
    20    10    64    1
    21    11    40    1
    22    11    65    1
    23    12    42    1
    24    12    66    1
    25    13    14    1
    26    13    16    1
    27    13    17    1
    28    13    43    1
    29    14    15    1
    30    14    44    1
    31    15    22    1
    32    16    18   ar
    33    16    19   ar
    34    17    20   ar
    35    17    28   ar
    36    18    26   ar
    37    19    21   ar
    38    20    29   ar
    39    21    23    1
    40    21    27   ar
    41    22    30   ar
    42    22    31   ar
    43    23    24    1
    44    23    45    1
    45    23    46    1
    46    24    25    1
    47    24    47    1
    48    25    32    1
    49    25    48    1
    50    26    27   ar
    51    26    49    1
    52    28    33   ar
    53    29    34   ar
    54    29    51    1
    55    30    35   ar
    56    30    52    1
    57    31    36   ar
    58    31    53    1
    59    32    37   ar
    60    32    39   ar
    61    33    34   ar
    62    33    54    1
    63    35    38   ar
    64    36    38   ar
    65    36    56    1
    66    37    40   ar
    67    37    59    1
    68    39    41   ar
    69    39    60    1
    70    40    42   ar
    71    41    42   ar
    72    41    62    1
