@<TRIPOS>MOLECULE
IMPHY008561
 69 71 0 0 0
SMALL
GASTEIGER

@<TRIPOS>ATOM
      1 O           6.0290   -1.8017    0.0000 O.2     1  UNL1       -0.4616
      2 O          10.3914    1.7671    0.0000 O.3     1  UNL1       -0.5062
      3 O           6.0174    1.2675    0.0000 O.2     1  UNL1       -0.2863
      4 O           4.2690    1.2329    0.0000 O.3     1  UNL1       -0.5058
      5 O           2.5369   -1.7671    0.0000 O.3     1  UNL1       -0.5062
      6 C           7.7991    0.2571    0.0000 C.ar    1  UNL1       -0.0105
      7 C           6.9350   -0.2462    0.0000 C.ar    1  UNL1        0.0644
      8 C           8.6594    1.7604    0.0000 C.ar    1  UNL1       -0.0014
      9 C           9.5312    0.2638    0.0000 C.ar    1  UNL1       -0.0014
     10 C           5.1350   -0.2671    0.0000 C.ar    1  UNL1        0.1063
     11 C           5.1350   -1.2671    0.0000 C.ar    1  UNL1        0.1489
     12 C           8.6671   -0.2396    0.0000 C.ar    1  UNL1       -0.0469
     13 C           7.7953    1.2571    0.0000 C.ar    1  UNL1       -0.0469
     14 C           9.5273    1.2638    0.0000 C.ar    1  UNL1        0.1238
     15 C           4.2690   -1.7671    0.0000 C.ar    1  UNL1        0.0408
     16 C           6.0290    0.2676    0.0000 C.ar    1  UNL1        0.2037
     17 C           8.6555    2.7604    0.0000 C.3     1  UNL1       -0.0058
     18 C          10.3991   -0.2329    0.0000 C.3     1  UNL1       -0.0058
     19 C           4.2690   -2.7671    0.0000 C.3     1  UNL1       -0.0023
     20 C           6.9350   -1.2879    0.0000 C.ar    1  UNL1        0.1039
     21 C           4.2690    0.2329    0.0000 C.ar    1  UNL1        0.1347
     22 C           3.4030   -1.2671    0.0000 C.ar    1  UNL1        0.1273
     23 C           3.4030   -0.2671    0.0000 C.ar    1  UNL1        0.0225
     24 C           9.5196    3.2637    0.0000 C.2     1  UNL1       -0.0809
     25 C          10.4030   -1.2329    0.0000 C.2     1  UNL1       -0.0809
     26 C           3.4030   -3.2671    0.0000 C.2     1  UNL1       -0.0807
     27 C           9.5157    4.2637    0.0000 C.2     1  UNL1       -0.0793
     28 C          11.2709   -1.7296    0.0000 C.2     1  UNL1       -0.0793
     29 C           3.4030   -4.2671    0.0000 C.2     1  UNL1       -0.0793
     30 C          10.3798    4.7671    0.0000 C.3     1  UNL1       -0.0440
     31 C           8.6478    4.7604    0.0000 C.3     1  UNL1       -0.0440
     32 C          11.2748   -2.7295    0.0000 C.3     1  UNL1       -0.0440
     33 C          12.1350   -1.2262    0.0000 C.3     1  UNL1       -0.0440
     34 C           2.5369   -4.7671    0.0000 C.3     1  UNL1       -0.0440
     35 C           4.2690   -4.7671    0.0000 C.3     1  UNL1       -0.0440
     36 H           8.6694   -0.8596    0.0000 H       1  UNL1        0.0628
     37 H           7.2571    1.5650    0.0000 H       1  UNL1        0.0628
     38 H           8.4412    3.3422    0.0000 H       1  UNL1        0.0357
     39 H           8.0453    2.6504    0.0000 H       1  UNL1        0.0357
     40 H          11.0101   -0.3382    0.0000 H       1  UNL1        0.0357
     41 H          10.6089    0.3505    0.0000 H       1  UNL1        0.0357
     42 H           4.4810   -3.3497    0.0000 H       1  UNL1        0.0358
     43 H           4.8796   -2.6594    0.0000 H       1  UNL1        0.0358
     44 H           7.4708   -1.6000    0.0000 H       1  UNL1        0.1037
     45 H           2.8660    0.0429    0.0000 H       1  UNL1        0.0691
     46 H          10.0577    2.9558    0.0000 H       1  UNL1        0.0575
     47 H           9.8672   -1.5450    0.0000 H       1  UNL1        0.0575
     48 H           2.8660   -2.9571    0.0000 H       1  UNL1        0.0575
     49 H          10.9295    1.4592    0.0000 H       1  UNL1        0.2922
     50 H           3.7320    1.5429    0.0000 H       1  UNL1        0.2922
     51 H           2.0000   -1.4571    0.0000 H       1  UNL1        0.2921
     52 H           8.9557    5.2985    0.0000 H       1  UNL1        0.0274
     53 H           8.1097    5.0683    0.0000 H       1  UNL1        0.0274
     54 H           8.3399    4.2223    0.0000 H       1  UNL1        0.0274
     55 H          10.6919    4.2313    0.0000 H       1  UNL1        0.0274
     56 H          10.9156    5.0791    0.0000 H       1  UNL1        0.0274
     57 H          10.0678    5.3028    0.0000 H       1  UNL1        0.0274
     58 H          10.6548   -2.7319    0.0000 H       1  UNL1        0.0274
     59 H          11.2771   -3.3495    0.0000 H       1  UNL1        0.0274
     60 H          11.8947   -2.7272    0.0000 H       1  UNL1        0.0274
     61 H          12.4471   -1.7620    0.0000 H       1  UNL1        0.0274
     62 H          12.6707   -0.9141    0.0000 H       1  UNL1        0.0274
     63 H          11.8229   -0.6905    0.0000 H       1  UNL1        0.0274
     64 H           3.9590   -5.3040    0.0000 H       1  UNL1        0.0274
     65 H           4.8059   -5.0771    0.0000 H       1  UNL1        0.0274
     66 H           2.2269   -4.2301    0.0000 H       1  UNL1        0.0274
     67 H           2.0000   -5.0771    0.0000 H       1  UNL1        0.0274
     68 H           2.8469   -5.3040    0.0000 H       1  UNL1        0.0274
     69 H           4.5790   -4.2301    0.0000 H       1  UNL1        0.0274
@<TRIPOS>BOND
     1     1    11   ar
     2     1    20   ar
     3     2    14    1
     4     2    49    1
     5     3    16    2
     6     4    21    1
     7     4    50    1
     8     5    22    1
     9     5    51    1
    10     6     7    1
    11     6    12   ar
    12     6    13   ar
    13     7    16   ar
    14     7    20   ar
    15     8    13   ar
    16     8    14   ar
    17     8    17    1
    18     9    12   ar
    19     9    14   ar
    20     9    18    1
    21    10    11   ar
    22    10    16   ar
    23    10    21   ar
    24    11    15   ar
    25    12    36    1
    26    13    37    1
    27    15    19    1
    28    15    22   ar
    29    17    24    1
    30    17    38    1
    31    17    39    1
    32    18    25    1
    33    18    40    1
    34    18    41    1
    35    19    26    1
    36    19    42    1
    37    19    43    1
    38    20    44    1
    39    21    23   ar
    40    22    23   ar
    41    23    45    1
    42    24    27    2
    43    24    46    1
    44    25    28    2
    45    25    47    1
    46    26    29    2
    47    26    48    1
    48    27    30    1
    49    27    31    1
    50    28    32    1
    51    28    33    1
    52    29    34    1
    53    29    35    1
    54    30    55    1
    55    30    56    1
    56    30    57    1
    57    31    52    1
    58    31    53    1
    59    31    54    1
    60    32    58    1
    61    32    59    1
    62    32    60    1
    63    33    61    1
    64    33    62    1
    65    33    63    1
    66    34    66    1
    67    34    67    1
    68    34    68    1
    69    35    64    1
    70    35    65    1
    71    35    69    1
