@<TRIPOS>MOLECULE
IMPHY010463
 145 152 0 0 0
SMALL
GASTEIGER

@<TRIPOS>ATOM
      1 O          10.3312   -1.6941    0.0000 O.3     1  UNL1       -0.3449
      2 O          13.0065    6.0580    0.0000 O.3     1  UNL1       -0.3911
      3 O          12.0850    7.5853    0.0000 O.3     1  UNL1       -0.3944
      4 O           8.5991   -1.6941    0.0000 O.3     1  UNL1       -0.3405
      5 O          10.3312   -3.6941    0.0000 O.3     1  UNL1       -0.3841
      6 O           8.5991   -4.6941    0.0000 O.3     1  UNL1       -0.3864
      7 O           6.8671   -3.6941    0.0000 O.3     1  UNL1       -0.3401
      8 O           6.8671   -0.6941    0.0000 O.3     1  UNL1       -0.3460
      9 O           7.7331   -5.1941    0.0000 O.3     1  UNL1       -0.3431
     10 O           5.1350   -0.6941    0.0000 O.3     1  UNL1       -0.3405
     11 O           5.1350   -4.6941    0.0000 O.3     1  UNL1       -0.3841
     12 O           5.1350   -6.6941    0.0000 O.3     1  UNL1       -0.3864
     13 O           6.8671    1.3059    0.0000 O.3     1  UNL1       -0.3841
     14 O           6.8671   -7.6941    0.0000 O.3     1  UNL1       -0.3866
     15 O           5.1350    2.3059    0.0000 O.3     1  UNL1       -0.3864
     16 O           3.4030    1.3059    0.0000 O.3     1  UNL1       -0.3865
     17 O           2.5369   -0.1941    0.0000 O.3     1  UNL1       -0.3924
     18 C          11.2322    3.0061    0.0000 C.3     1  UNL1       -0.0193
     19 C          10.3681    2.5027    0.0000 C.3     1  UNL1       -0.0257
     20 C          10.3561    1.4612    0.0000 C.3     1  UNL1       -0.0250
     21 C          11.2284    4.0061    0.0000 C.3     1  UNL1       -0.0028
     22 C          11.2562    0.9369    0.0000 C.3     1  UNL1       -0.0278
     23 C          12.1442    2.5027    0.0000 C.3     1  UNL1       -0.0463
     24 C          10.3604    4.5027    0.0000 C.2     1  UNL1       -0.0632
     25 C          12.1562    1.4612    0.0000 C.3     1  UNL1       -0.0486
     26 C          11.2687   -0.1480    0.0000 C.3     1  UNL1       -0.0052
     27 C          10.3404    5.5442    0.0000 C.3     1  UNL1       -0.0088
     28 C          11.2363    6.0754    0.0000 C.3     1  UNL1        0.0263
     29 C          12.1364    4.5164    0.0000 C.3     1  UNL1       -0.0166
     30 C           9.5002    2.9994    0.0000 C.3     1  UNL1       -0.0306
     31 C           9.4062    0.9369    0.0000 C.3     1  UNL1       -0.0447
     32 C          12.1404    5.5580    0.0000 C.3     1  UNL1        0.0643
     33 C          12.2164    3.1835    0.0000 C.3     1  UNL1       -0.0585
     34 C          10.3312   -0.6941    0.0000 C.3     1  UNL1        0.0672
     35 C           9.4963    3.9994    0.0000 C.2     1  UNL1       -0.0836
     36 C           9.4920    1.9645    0.0000 C.3     1  UNL1       -0.0590
     37 C           9.3936   -0.1480    0.0000 C.3     1  UNL1       -0.0255
     38 C          12.2138    3.8362    0.0000 C.3     1  UNL1       -0.0552
     39 C           9.3864    6.0611    0.0000 C.3     1  UNL1       -0.0406
     40 C          11.2405    7.1604    0.0000 C.3     1  UNL1       -0.0419
     41 C           9.3655    7.1459    0.0000 C.3     1  UNL1       -0.0343
     42 C          10.2988    7.6992    0.0000 C.3     1  UNL1       -0.0472
     43 C          12.2687   -0.1403    0.0000 C.3     1  UNL1       -0.0572
     44 C          11.7754   -1.0102    0.0000 C.3     1  UNL1       -0.0572
     45 C          12.0965    6.5854    0.0000 C.3     1  UNL1        0.0527
     46 C           8.8522    8.0041    0.0000 C.3     1  UNL1       -0.0598
     47 C           8.3656    7.1305    0.0000 C.3     1  UNL1       -0.0598
     48 C           9.4651   -2.1941    0.0000 C.3     1  UNL1        0.1882
     49 C           9.4651   -3.1941    0.0000 C.3     1  UNL1        0.1341
     50 C           8.5991   -3.6941    0.0000 C.3     1  UNL1        0.1144
     51 C           7.7331   -2.1941    0.0000 C.3     1  UNL1        0.1137
     52 C           7.7331   -3.1941    0.0000 C.3     1  UNL1        0.1184
     53 C           6.8671   -1.6941    0.0000 C.3     1  UNL1        0.0796
     54 C           6.8671   -4.6941    0.0000 C.3     1  UNL1        0.1883
     55 C           6.0010   -5.1941    0.0000 C.3     1  UNL1        0.1341
     56 C           6.0010   -0.1941    0.0000 C.3     1  UNL1        0.1880
     57 C           6.0010   -6.1941    0.0000 C.3     1  UNL1        0.1140
     58 C           7.7331   -6.1941    0.0000 C.3     1  UNL1        0.0873
     59 C           6.0010    0.8059    0.0000 C.3     1  UNL1        0.1341
     60 C           6.8671   -6.6941    0.0000 C.3     1  UNL1        0.1095
     61 C           5.1350    1.3059    0.0000 C.3     1  UNL1        0.1141
     62 C           4.2690   -0.1941    0.0000 C.3     1  UNL1        0.1130
     63 C           4.2690    0.8059    0.0000 C.3     1  UNL1        0.1119
     64 C           8.5991   -6.6941    0.0000 C.3     1  UNL1       -0.0361
     65 C           3.4030   -0.6941    0.0000 C.3     1  UNL1        0.0730
     66 H          11.1026    2.0749    0.0000 H       1  UNL1        0.0315
     67 H          11.9955    0.5176    0.0000 H       1  UNL1        0.0312
     68 H          12.7562    2.4037    0.0000 H       1  UNL1        0.0271
     69 H          12.3465    3.0888    0.0000 H       1  UNL1        0.0271
     70 H          12.3720    0.8800    0.0000 H       1  UNL1        0.0268
     71 H          12.7658    1.5743    0.0000 H       1  UNL1        0.0268
     72 H           9.6142    5.1023    0.0000 H       1  UNL1        0.0353
     73 H          12.3432    3.9319    0.0000 H       1  UNL1        0.0299
     74 H          12.7477    4.6202    0.0000 H       1  UNL1        0.0299
     75 H           8.8892    3.1047    0.0000 H       1  UNL1        0.0310
     76 H           9.2904    2.4160    0.0000 H       1  UNL1        0.0310
     77 H           9.2039    1.5230    0.0000 H       1  UNL1        0.0271
     78 H           8.7941    0.8379    0.0000 H       1  UNL1        0.0271
     79 H          12.6768    5.2470    0.0000 H       1  UNL1        0.0600
     80 H          12.3264    2.5734    0.0000 H       1  UNL1        0.0235
     81 H          12.8265    3.2936    0.0000 H       1  UNL1        0.0235
     82 H          12.1063    3.7937    0.0000 H       1  UNL1        0.0235
     83 H          10.8687   -1.0031    0.0000 H       1  UNL1        0.0602
     84 H           8.9582    4.3073    0.0000 H       1  UNL1        0.0572
     85 H           9.8041    2.5003    0.0000 H       1  UNL1        0.0235
     86 H           8.9563    2.2766    0.0000 H       1  UNL1        0.0235
     87 H           9.1799    1.4288    0.0000 H       1  UNL1        0.0235
     88 H           8.7840   -0.0349    0.0000 H       1  UNL1        0.0290
     89 H           9.1778   -0.7293    0.0000 H       1  UNL1        0.0290
     90 H          12.1085    3.2252    0.0000 H       1  UNL1        0.0238
     91 H          12.8248    3.7309    0.0000 H       1  UNL1        0.0238
     92 H          12.3191    4.4472    0.0000 H       1  UNL1        0.0238
     93 H           8.7736    6.1554    0.0000 H       1  UNL1        0.0276
     94 H           9.1887    5.4735    0.0000 H       1  UNL1        0.0276
     95 H          11.8510    7.0519    0.0000 H       1  UNL1        0.0272
     96 H          11.4518    7.7433    0.0000 H       1  UNL1        0.0272
     97 H          10.6943    8.1767    0.0000 H       1  UNL1        0.0271
     98 H           9.8960    8.1706    0.0000 H       1  UNL1        0.0271
     99 H          11.2408   -1.3243    0.0000 H       1  UNL1        0.0236
    100 H          12.0895   -1.5447    0.0000 H       1  UNL1        0.0236
    101 H          12.3099   -0.6960    0.0000 H       1  UNL1        0.0236
    102 H          12.2734   -0.7603    0.0000 H       1  UNL1        0.0236
    103 H          12.8887   -0.1355    0.0000 H       1  UNL1        0.0236
    104 H          12.2639    0.4797    0.0000 H       1  UNL1        0.0236
    105 H          12.3153    6.0052    0.0000 H       1  UNL1        0.0564
    106 H          12.7058    6.7001    0.0000 H       1  UNL1        0.0564
    107 H          13.5434    5.7480    0.0000 H       1  UNL1        0.2098
    108 H           9.3843    8.3224    0.0000 H       1  UNL1        0.0235
    109 H           8.3561    7.7504    0.0000 H       1  UNL1        0.0235
    110 H           8.5340    8.5362    0.0000 H       1  UNL1        0.0235
    111 H           7.7457    7.1209    0.0000 H       1  UNL1        0.0235
    112 H           8.3201    7.6859    0.0000 H       1  UNL1        0.0235
    113 H           8.3752    6.5106    0.0000 H       1  UNL1        0.0235
    114 H          10.0021   -2.5041    0.0000 H       1  UNL1        0.0937
    115 H          12.6183    7.9015    0.0000 H       1  UNL1        0.2094
    116 H           9.4651   -3.8141    0.0000 H       1  UNL1        0.0671
    117 H           8.0622   -4.0041    0.0000 H       1  UNL1        0.0648
    118 H           7.7331   -1.5741    0.0000 H       1  UNL1        0.0647
    119 H           7.1962   -2.8841    0.0000 H       1  UNL1        0.0651
    120 H          10.8681   -3.3841    0.0000 H       1  UNL1        0.2101
    121 H           6.2565   -1.5865    0.0000 H       1  UNL1        0.0587
    122 H           6.6550   -2.2767    0.0000 H       1  UNL1        0.0587
    123 H           9.1360   -5.0041    0.0000 H       1  UNL1        0.2100
    124 H           6.3301   -4.3841    0.0000 H       1  UNL1        0.0938
    125 H           5.4641   -5.5041    0.0000 H       1  UNL1        0.0671
    126 H           6.5380    0.1159    0.0000 H       1  UNL1        0.0937
    127 H           6.9488   -6.5041    0.0000 H       1  UNL1        0.0648
    128 H           8.2700   -5.8841    0.0000 H       1  UNL1        0.0621
    129 H           6.0010    1.4259    0.0000 H       1  UNL1        0.0671
    130 H           6.3301   -7.0041    0.0000 H       1  UNL1        0.0646
    131 H           4.5981    1.6159    0.0000 H       1  UNL1        0.0648
    132 H           4.5981   -5.0041    0.0000 H       1  UNL1        0.2101
    133 H           4.2690   -0.8141    0.0000 H       1  UNL1        0.0647
    134 H           4.8311    1.4259    0.0000 H       1  UNL1        0.0647
    135 H           8.2891   -7.2311    0.0000 H       1  UNL1        0.0255
    136 H           9.1360   -7.0041    0.0000 H       1  UNL1        0.0255
    137 H           8.9091   -6.1572    0.0000 H       1  UNL1        0.0255
    138 H           5.1350   -7.3141    0.0000 H       1  UNL1        0.2100
    139 H           6.8671    1.9259    0.0000 H       1  UNL1        0.2101
    140 H           7.4040   -8.0041    0.0000 H       1  UNL1        0.2100
    141 H           3.0044   -1.1691    0.0000 H       1  UNL1        0.0584
    142 H           3.8015   -1.1691    0.0000 H       1  UNL1        0.0584
    143 H           4.5981    2.6159    0.0000 H       1  UNL1        0.2100
    144 H           3.4030    1.9259    0.0000 H       1  UNL1        0.2100
    145 H           2.0000   -0.5041    0.0000 H       1  UNL1        0.2095
@<TRIPOS>BOND
     1    34     1    1
     2    48     1    1
     3    32     2    1
     4     2   107    1
     5     3    45    1
     6     3   115    1
     7     4    48    1
     8     4    51    1
     9    49     5    1
    10     5   120    1
    11    50     6    1
    12     6   123    1
    13    52     7    1
    14    54     7    1
    15     8    53    1
    16    56     8    1
    17     9    54    1
    18     9    58    1
    19    10    56    1
    20    10    62    1
    21    55    11    1
    22    11   132    1
    23    57    12    1
    24    12   138    1
    25    59    13    1
    26    13   139    1
    27    60    14    1
    28    14   140    1
    29    61    15    1
    30    15   143    1
    31    63    16    1
    32    16   144    1
    33    17    65    1
    34    17   145    1
    35    18    19    1
    36    18    21    1
    37    18    23    1
    38    18    33    1
    39    19    20    1
    40    19    30    1
    41    19    66    1
    42    20    22    1
    43    20    31    1
    44    20    36    1
    45    21    24    1
    46    21    29    1
    47    21    38    1
    48    22    25    1
    49    22    26    1
    50    22    67    1
    51    23    25    1
    52    23    68    1
    53    23    69    1
    54    24    27    1
    55    24    35    2
    56    25    70    1
    57    25    71    1
    58    26    34    1
    59    26    43    1
    60    26    44    1
    61    27    28    1
    62    27    39    1
    63    27    72    1
    64    28    32    1
    65    28    40    1
    66    28    45    1
    67    29    32    1
    68    29    73    1
    69    29    74    1
    70    30    35    1
    71    30    75    1
    72    30    76    1
    73    31    37    1
    74    31    77    1
    75    31    78    1
    76    32    79    1
    77    33    80    1
    78    33    81    1
    79    33    82    1
    80    34    37    1
    81    34    83    1
    82    35    84    1
    83    36    85    1
    84    36    86    1
    85    36    87    1
    86    37    88    1
    87    37    89    1
    88    38    90    1
    89    38    91    1
    90    38    92    1
    91    39    41    1
    92    39    93    1
    93    39    94    1
    94    40    42    1
    95    40    95    1
    96    40    96    1
    97    41    42    1
    98    41    46    1
    99    41    47    1
   100    42    97    1
   101    42    98    1
   102    43   102    1
   103    43   103    1
   104    43   104    1
   105    44    99    1
   106    44   100    1
   107    44   101    1
   108    45   105    1
   109    45   106    1
   110    46   108    1
   111    46   110    1
   112    46   112    1
   113    47   109    1
   114    47   111    1
   115    47   113    1
   116    48    49    1
   117    48   114    1
   118    49    50    1
   119    49   116    1
   120    50    52    1
   121    50   117    1
   122    51    52    1
   123    51    53    1
   124    51   118    1
   125    52   119    1
   126    53   121    1
   127    53   122    1
   128    54    55    1
   129    54   124    1
   130    55    57    1
   131    55   125    1
   132    56    59    1
   133    56   126    1
   134    57    60    1
   135    57   127    1
   136    58    60    1
   137    58    64    1
   138    58   128    1
   139    59    61    1
   140    59   129    1
   141    60   130    1
   142    61    63    1
   143    61   131    1
   144    62    63    1
   145    62    65    1
   146    62   133    1
   147    63   134    1
   148    64   135    1
   149    64   136    1
   150    64   137    1
   151    65   141    1
   152    65   142    1
