@<TRIPOS>MOLECULE
IMPHY012382
 65 66 0 0 0
SMALL
GASTEIGER

@<TRIPOS>ATOM
      1 O          10.3469    1.7519    0.0000 O.3     1  UNL1       -0.4939
      2 O           4.3117   -3.3123    0.0000 O.3     1  UNL1       -0.4939
      3 O           6.8828    1.7519    0.0000 O.3     1  UNL1       -0.5055
      4 O           4.9132    0.0993    0.0000 O.3     1  UNL1       -0.5055
      5 O           9.2577   -1.0140    0.0000 O.3     1  UNL1       -0.5060
      6 O           7.5668   -2.1274    0.0000 O.3     1  UNL1       -0.5060
      7 O           7.7488    3.2519    0.0000 O.2     1  UNL1       -0.2915
      8 O           3.2856   -0.4932    0.0000 O.2     1  UNL1       -0.2915
      9 C           6.8828   -0.2481    0.0000 C.3     1  UNL1        0.0115
     10 C           7.7488    0.2519    0.0000 C.ar    1  UNL1        0.0411
     11 C           6.2401   -1.0142    0.0000 C.ar    1  UNL1        0.0411
     12 C           8.6148    1.7519    0.0000 C.ar    1  UNL1        0.1013
     13 C           4.6124   -1.6066    0.0000 C.ar    1  UNL1        0.1013
     14 C           7.7488    1.2519    0.0000 C.ar    1  UNL1        0.1378
     15 C           5.2552   -0.8405    0.0000 C.ar    1  UNL1        0.1378
     16 C           8.6148   -0.2481    0.0000 C.ar    1  UNL1        0.1302
     17 C           6.5820   -1.9538    0.0000 C.ar    1  UNL1        0.1302
     18 C           9.4808    0.2519    0.0000 C.ar    1  UNL1        0.0337
     19 C           5.9392   -2.7198    0.0000 C.ar    1  UNL1        0.0337
     20 C           9.4808    1.2519    0.0000 C.ar    1  UNL1        0.1405
     21 C           4.9545   -2.5463    0.0000 C.ar    1  UNL1        0.1405
     22 C           9.4808    3.2519    0.0000 C.3     1  UNL1        0.0167
     23 C           2.9848   -2.1990    0.0000 C.3     1  UNL1        0.0167
     24 C           8.6148    2.7519    0.0000 C.2     1  UNL1        0.1727
     25 C           3.6276   -1.4329    0.0000 C.2     1  UNL1        0.1727
     26 C          10.3469   -0.2481    0.0000 C.3     1  UNL1       -0.0327
     27 C           6.2812   -3.6595    0.0000 C.3     1  UNL1       -0.0327
     28 C           9.4808    4.2519    0.0000 C.3     1  UNL1       -0.0556
     29 C          10.3469    2.7519    0.0000 C.3     1  UNL1       -0.0556
     30 C           2.0000   -2.0253    0.0000 C.3     1  UNL1       -0.0556
     31 C           3.3269   -3.1387    0.0000 C.3     1  UNL1       -0.0556
     32 C          11.2129    1.2519    0.0000 C.3     1  UNL1        0.0788
     33 C           4.6536   -4.2519    0.0000 C.3     1  UNL1        0.0788
     34 H           6.8108    0.3677    0.0000 H       1  UNL1        0.0366
     35 H           7.2813   -0.7230    0.0000 H       1  UNL1        0.0366
     36 H          10.0178    3.5619    0.0000 H       1  UNL1        0.0375
     37 H           2.5863   -2.6739    0.0000 H       1  UNL1        0.0375
     38 H          10.0369   -0.7850    0.0000 H       1  UNL1        0.0280
     39 H          10.8838   -0.5581    0.0000 H       1  UNL1        0.0280
     40 H          10.6569    0.2889    0.0000 H       1  UNL1        0.0280
     41 H           5.6986   -3.8716    0.0000 H       1  UNL1        0.0280
     42 H           6.4933   -4.2422    0.0000 H       1  UNL1        0.0280
     43 H           6.8638   -3.4475    0.0000 H       1  UNL1        0.0280
     44 H          10.1009    4.2519    0.0000 H       1  UNL1        0.0236
     45 H           9.4808    4.8719    0.0000 H       1  UNL1        0.0236
     46 H           8.8608    4.2519    0.0000 H       1  UNL1        0.0236
     47 H          10.0369    2.2150    0.0000 H       1  UNL1        0.0236
     48 H          10.8838    2.4419    0.0000 H       1  UNL1        0.0236
     49 H          10.6569    3.2889    0.0000 H       1  UNL1        0.0236
     50 H           2.1077   -1.4147    0.0000 H       1  UNL1        0.0236
     51 H           1.3894   -1.9176    0.0000 H       1  UNL1        0.0236
     52 H           1.8923   -2.6359    0.0000 H       1  UNL1        0.0236
     53 H           2.7443   -3.3507    0.0000 H       1  UNL1        0.0236
     54 H           3.5389   -3.7213    0.0000 H       1  UNL1        0.0236
     55 H           3.9095   -2.9266    0.0000 H       1  UNL1        0.0236
     56 H           6.3458    1.4419    0.0000 H       1  UNL1        0.2922
     57 H           5.3117    0.5742    0.0000 H       1  UNL1        0.2922
     58 H           9.0456   -1.5967    0.0000 H       1  UNL1        0.2922
     59 H           7.7789   -2.7101    0.0000 H       1  UNL1        0.2922
     60 H          10.9029    0.7150    0.0000 H       1  UNL1        0.0660
     61 H          11.7498    0.9419    0.0000 H       1  UNL1        0.0660
     62 H          11.5229    1.7889    0.0000 H       1  UNL1        0.0660
     63 H           4.0710   -4.4640    0.0000 H       1  UNL1        0.0660
     64 H           4.8657   -4.8346    0.0000 H       1  UNL1        0.0660
     65 H           5.2363   -4.0399    0.0000 H       1  UNL1        0.0660
@<TRIPOS>BOND
     1     1    20    1
     2     1    32    1
     3     2    21    1
     4     2    33    1
     5     3    14    1
     6     3    56    1
     7     4    15    1
     8     4    57    1
     9     5    16    1
    10     5    58    1
    11     6    17    1
    12     6    59    1
    13     7    24    2
    14     8    25    2
    15     9    10    1
    16     9    11    1
    17     9    34    1
    18     9    35    1
    19    10    14   ar
    20    10    16   ar
    21    11    15   ar
    22    11    17   ar
    23    12    14   ar
    24    12    20   ar
    25    12    24    1
    26    13    15   ar
    27    13    21   ar
    28    13    25    1
    29    16    18   ar
    30    17    19   ar
    31    18    20   ar
    32    18    26    1
    33    19    21   ar
    34    19    27    1
    35    22    24    1
    36    22    28    1
    37    22    29    1
    38    22    36    1
    39    23    25    1
    40    23    30    1
    41    23    31    1
    42    23    37    1
    43    26    38    1
    44    26    39    1
    45    26    40    1
    46    27    41    1
    47    27    42    1
    48    27    43    1
    49    28    44    1
    50    28    45    1
    51    28    46    1
    52    29    47    1
    53    29    48    1
    54    29    49    1
    55    30    50    1
    56    30    51    1
    57    30    52    1
    58    31    53    1
    59    31    54    1
    60    31    55    1
    61    32    60    1
    62    32    61    1
    63    32    62    1
    64    33    63    1
    65    33    64    1
    66    33    65    1
