@<TRIPOS>MOLECULE
IMPHY009972
 98 97 0 0 0
SMALL
GASTEIGER

@<TRIPOS>ATOM
      1 O          26.7856   -1.2500    0.0000 O.2     1  UNL1       -0.2927
      2 O           2.5369   -0.2500    0.0000 O.3     1  UNL1       -0.4806
      3 O           3.4030    1.2500    0.0000 O.2     1  UNL1       -0.2510
      4 C          15.5273    0.2500    0.0000 C.3     1  UNL1       -0.0531
      5 C          14.6613   -0.2500    0.0000 C.3     1  UNL1       -0.0531
      6 C          16.3933   -0.2500    0.0000 C.3     1  UNL1       -0.0531
      7 C          13.7953    0.2500    0.0000 C.3     1  UNL1       -0.0531
      8 C          17.2594    0.2500    0.0000 C.3     1  UNL1       -0.0531
      9 C          12.9292   -0.2500    0.0000 C.3     1  UNL1       -0.0531
     10 C          18.1254   -0.2500    0.0000 C.3     1  UNL1       -0.0531
     11 C          12.0632    0.2500    0.0000 C.3     1  UNL1       -0.0531
     12 C          18.9914    0.2500    0.0000 C.3     1  UNL1       -0.0531
     13 C          11.1972   -0.2500    0.0000 C.3     1  UNL1       -0.0531
     14 C          19.8574   -0.2500    0.0000 C.3     1  UNL1       -0.0531
     15 C          10.3312    0.2500    0.0000 C.3     1  UNL1       -0.0531
     16 C          20.7235    0.2500    0.0000 C.3     1  UNL1       -0.0531
     17 C           9.4651   -0.2500    0.0000 C.3     1  UNL1       -0.0531
     18 C          21.5895   -0.2500    0.0000 C.3     1  UNL1       -0.0531
     19 C           8.5991    0.2500    0.0000 C.3     1  UNL1       -0.0531
     20 C          22.4555    0.2500    0.0000 C.3     1  UNL1       -0.0531
     21 C           7.7331   -0.2500    0.0000 C.3     1  UNL1       -0.0531
     22 C          23.3215   -0.2500    0.0000 C.3     1  UNL1       -0.0530
     23 C           6.8671    0.2500    0.0000 C.3     1  UNL1       -0.0530
     24 C          24.1876    0.2500    0.0000 C.3     1  UNL1       -0.0527
     25 C           6.0010   -0.2500    0.0000 C.3     1  UNL1       -0.0526
     26 C          25.0536   -0.2500    0.0000 C.3     1  UNL1       -0.0461
     27 C           5.1350    0.2500    0.0000 C.3     1  UNL1       -0.0430
     28 C          25.9196    0.2500    0.0000 C.3     1  UNL1        0.0099
     29 C           4.2690   -0.2500    0.0000 C.3     1  UNL1        0.0448
     30 C          26.7856   -0.2500    0.0000 C.2     1  UNL1        0.1560
     31 C           3.4030    0.2500    0.0000 C.2     1  UNL1        0.3047
     32 C          27.6517    0.2500    0.0000 C.2     1  UNL1       -0.0202
     33 C          28.5177   -0.2500    0.0000 C.2     1  UNL1       -0.0696
     34 C          29.3837    0.2500    0.0000 C.3     1  UNL1       -0.0345
     35 C          28.5177   -1.2500    0.0000 C.3     1  UNL1       -0.0434
     36 C          30.2497   -0.2500    0.0000 C.3     1  UNL1       -0.0616
     37 H          15.9258    0.7249    0.0000 H       1  UNL1        0.0265
     38 H          15.1288    0.7249    0.0000 H       1  UNL1        0.0265
     39 H          14.2628   -0.7249    0.0000 H       1  UNL1        0.0265
     40 H          15.0598   -0.7249    0.0000 H       1  UNL1        0.0265
     41 H          15.9948   -0.7249    0.0000 H       1  UNL1        0.0265
     42 H          16.7919   -0.7249    0.0000 H       1  UNL1        0.0265
     43 H          14.1938    0.7249    0.0000 H       1  UNL1        0.0265
     44 H          13.3967    0.7249    0.0000 H       1  UNL1        0.0265
     45 H          17.6579    0.7249    0.0000 H       1  UNL1        0.0265
     46 H          16.8608    0.7249    0.0000 H       1  UNL1        0.0265
     47 H          12.5307   -0.7249    0.0000 H       1  UNL1        0.0265
     48 H          13.3278   -0.7249    0.0000 H       1  UNL1        0.0265
     49 H          17.7269   -0.7249    0.0000 H       1  UNL1        0.0265
     50 H          18.5239   -0.7249    0.0000 H       1  UNL1        0.0265
     51 H          12.4617    0.7249    0.0000 H       1  UNL1        0.0265
     52 H          11.6647    0.7249    0.0000 H       1  UNL1        0.0265
     53 H          19.3899    0.7249    0.0000 H       1  UNL1        0.0265
     54 H          18.5929    0.7249    0.0000 H       1  UNL1        0.0265
     55 H          10.7987   -0.7249    0.0000 H       1  UNL1        0.0265
     56 H          11.5957   -0.7249    0.0000 H       1  UNL1        0.0265
     57 H          19.4589   -0.7249    0.0000 H       1  UNL1        0.0265
     58 H          20.2560   -0.7249    0.0000 H       1  UNL1        0.0265
     59 H          10.7297    0.7249    0.0000 H       1  UNL1        0.0265
     60 H           9.9326    0.7249    0.0000 H       1  UNL1        0.0265
     61 H          21.1220    0.7249    0.0000 H       1  UNL1        0.0265
     62 H          20.3249    0.7249    0.0000 H       1  UNL1        0.0265
     63 H           9.0666   -0.7249    0.0000 H       1  UNL1        0.0265
     64 H           9.8637   -0.7249    0.0000 H       1  UNL1        0.0265
     65 H          21.1910   -0.7249    0.0000 H       1  UNL1        0.0265
     66 H          21.9880   -0.7249    0.0000 H       1  UNL1        0.0265
     67 H           8.9976    0.7249    0.0000 H       1  UNL1        0.0265
     68 H           8.2006    0.7249    0.0000 H       1  UNL1        0.0265
     69 H          22.8540    0.7249    0.0000 H       1  UNL1        0.0265
     70 H          22.0570    0.7249    0.0000 H       1  UNL1        0.0265
     71 H           7.3346   -0.7249    0.0000 H       1  UNL1        0.0265
     72 H           8.1316   -0.7249    0.0000 H       1  UNL1        0.0265
     73 H          22.9230   -0.7249    0.0000 H       1  UNL1        0.0265
     74 H          23.7201   -0.7249    0.0000 H       1  UNL1        0.0265
     75 H           7.2656    0.7249    0.0000 H       1  UNL1        0.0265
     76 H           6.4685    0.7249    0.0000 H       1  UNL1        0.0265
     77 H          24.5861    0.7249    0.0000 H       1  UNL1        0.0265
     78 H          23.7890    0.7249    0.0000 H       1  UNL1        0.0265
     79 H           5.6025   -0.7249    0.0000 H       1  UNL1        0.0265
     80 H           6.3996   -0.7249    0.0000 H       1  UNL1        0.0265
     81 H          24.6551   -0.7249    0.0000 H       1  UNL1        0.0269
     82 H          25.4521   -0.7249    0.0000 H       1  UNL1        0.0269
     83 H           5.5335    0.7249    0.0000 H       1  UNL1        0.0270
     84 H           4.7365    0.7249    0.0000 H       1  UNL1        0.0270
     85 H          26.3182    0.7249    0.0000 H       1  UNL1        0.0345
     86 H          25.5211    0.7249    0.0000 H       1  UNL1        0.0345
     87 H           3.8705   -0.7249    0.0000 H       1  UNL1        0.0377
     88 H           4.6675   -0.7249    0.0000 H       1  UNL1        0.0377
     89 H          27.6517    0.8700    0.0000 H       1  UNL1        0.0652
     90 H          29.7823    0.7249    0.0000 H       1  UNL1        0.0307
     91 H          28.9852    0.7249    0.0000 H       1  UNL1        0.0307
     92 H           2.0000    0.0600    0.0000 H       1  UNL1        0.2951
     93 H          27.8977   -1.2500    0.0000 H       1  UNL1        0.0274
     94 H          28.5177   -1.8700    0.0000 H       1  UNL1        0.0274
     95 H          29.1377   -1.2500    0.0000 H       1  UNL1        0.0274
     96 H          29.9397   -0.7869    0.0000 H       1  UNL1        0.0233
     97 H          30.7867   -0.5600    0.0000 H       1  UNL1        0.0233
     98 H          30.5597    0.2869    0.0000 H       1  UNL1        0.0233
@<TRIPOS>BOND
     1     1    30    2
     2     2    31    1
     3     2    92    1
     4     3    31    2
     5     4     5    1
     6     4     6    1
     7     4    37    1
     8     4    38    1
     9     5     7    1
    10     5    39    1
    11     5    40    1
    12     6     8    1
    13     6    41    1
    14     6    42    1
    15     7     9    1
    16     7    43    1
    17     7    44    1
    18     8    10    1
    19     8    45    1
    20     8    46    1
    21     9    11    1
    22     9    47    1
    23     9    48    1
    24    10    12    1
    25    10    49    1
    26    10    50    1
    27    11    13    1
    28    11    51    1
    29    11    52    1
    30    12    14    1
    31    12    53    1
    32    12    54    1
    33    13    15    1
    34    13    55    1
    35    13    56    1
    36    14    16    1
    37    14    57    1
    38    14    58    1
    39    15    17    1
    40    15    59    1
    41    15    60    1
    42    16    18    1
    43    16    61    1
    44    16    62    1
    45    17    19    1
    46    17    63    1
    47    17    64    1
    48    18    20    1
    49    18    65    1
    50    18    66    1
    51    19    21    1
    52    19    67    1
    53    19    68    1
    54    20    22    1
    55    20    69    1
    56    20    70    1
    57    21    23    1
    58    21    71    1
    59    21    72    1
    60    22    24    1
    61    22    73    1
    62    22    74    1
    63    23    25    1
    64    23    75    1
    65    23    76    1
    66    24    26    1
    67    24    77    1
    68    24    78    1
    69    25    27    1
    70    25    79    1
    71    25    80    1
    72    26    28    1
    73    26    81    1
    74    26    82    1
    75    27    29    1
    76    27    83    1
    77    27    84    1
    78    28    30    1
    79    28    85    1
    80    28    86    1
    81    29    31    1
    82    29    87    1
    83    29    88    1
    84    30    32    1
    85    32    33    2
    86    32    89    1
    87    33    34    1
    88    33    35    1
    89    34    36    1
    90    34    90    1
    91    34    91    1
    92    35    93    1
    93    35    94    1
    94    35    95    1
    95    36    96    1
    96    36    97    1
    97    36    98    1
