@<TRIPOS>MOLECULE
IMPHY003351
 72 76 0 0 0
SMALL
GASTEIGER

@<TRIPOS>ATOM
      1 O           5.0830    2.1484    0.0000 O.3     1  UNL1       -0.4562
      2 O           6.8671   -1.9000    0.0000 O.2     1  UNL1       -0.4651
      3 O          10.3972    1.1241    0.0000 O.3     1  UNL1       -0.3917
      4 O           4.2308    0.5969    0.0000 O.2     1  UNL1       -0.2505
      5 O           5.1350   -1.9000    0.0000 O.3     1  UNL1       -0.3313
      6 O           9.4756   -2.4446    0.0000 O.3     1  UNL1       -0.4675
      7 O           7.7437   -2.4246    0.0000 O.2     1  UNL1       -0.2502
      8 O           5.4949    5.2100    0.0000 O.2     1  UNL1       -0.4706
      9 O           6.8671   -3.9000    0.0000 O.3     1  UNL1       -0.3829
     10 O           5.1350   -4.9000    0.0000 O.3     1  UNL1       -0.3864
     11 O           3.4030   -3.9000    0.0000 O.3     1  UNL1       -0.3865
     12 O           2.5369   -2.4000    0.0000 O.3     1  UNL1       -0.3924
     13 C           6.8671    1.1000    0.0000 C.3     1  UNL1       -0.0084
     14 C           7.7331    0.6000    0.0000 C.3     1  UNL1       -0.0071
     15 C           6.0010    0.6000    0.0000 C.3     1  UNL1        0.0693
     16 C           7.7331   -0.4000    0.0000 C.2     1  UNL1       -0.0146
     17 C           6.8831    2.1415    0.0000 C.3     1  UNL1       -0.0046
     18 C           8.6270    1.1347    0.0000 C.3     1  UNL1       -0.0196
     19 C           6.0010   -0.4000    0.0000 C.3     1  UNL1        0.0185
     20 C           8.6270   -0.9347    0.0000 C.3     1  UNL1        0.0833
     21 C           7.7331    1.6000    0.0000 C.3     1  UNL1       -0.0581
     22 C           6.8671   -0.9000    0.0000 C.2     1  UNL1        0.1023
     23 C           9.5331    0.6208    0.0000 C.3     1  UNL1        0.0569
     24 C           9.5331   -0.4208    0.0000 C.3     1  UNL1       -0.0100
     25 C           5.9851    2.6693    0.0000 C.3     1  UNL1        0.1315
     26 C           5.0910    1.1068    0.0000 C.2     1  UNL1        0.3117
     27 C           8.6155   -1.9346    0.0000 C.2     1  UNL1        0.3142
     28 C           5.9889    3.6692    0.0000 C.ar    1  UNL1        0.0304
     29 C           6.0010   -2.4000    0.0000 C.3     1  UNL1        0.2303
     30 C           6.0010   -3.4000    0.0000 C.3     1  UNL1        0.1454
     31 C           6.8002    4.2539    0.0000 C.ar    1  UNL1       -0.0172
     32 C           5.1350   -3.9000    0.0000 C.3     1  UNL1        0.1152
     33 C           5.1822    4.2602    0.0000 C.ar    1  UNL1        0.0983
     34 C           4.2690   -2.4000    0.0000 C.3     1  UNL1        0.1140
     35 C           4.2690   -3.4000    0.0000 C.3     1  UNL1        0.1120
     36 C           6.4949    5.2062    0.0000 C.ar    1  UNL1        0.0921
     37 C           3.4030   -1.9000    0.0000 C.3     1  UNL1        0.0731
     38 C           9.4641   -3.4445    0.0000 C.3     1  UNL1        0.0817
     39 H           8.4725    0.1807    0.0000 H       1  UNL1        0.0353
     40 H           5.2682    0.1693    0.0000 H       1  UNL1        0.0423
     41 H           7.4923    2.0260    0.0000 H       1  UNL1        0.0310
     42 H           7.1012    2.7219    0.0000 H       1  UNL1        0.0310
     43 H           9.0207    1.6137    0.0000 H       1  UNL1        0.0296
     44 H           8.2224    1.6044    0.0000 H       1  UNL1        0.0296
     45 H           5.3905   -0.2923    0.0000 H       1  UNL1        0.0351
     46 H           5.7890   -0.9826    0.0000 H       1  UNL1        0.0351
     47 H           9.1610   -1.2498    0.0000 H       1  UNL1        0.0461
     48 H           8.0431    1.0631    0.0000 H       1  UNL1        0.0235
     49 H           8.2700    1.9100    0.0000 H       1  UNL1        0.0235
     50 H           7.4231    2.1369    0.0000 H       1  UNL1        0.0235
     51 H           9.5295    1.2408    0.0000 H       1  UNL1        0.0594
     52 H           9.7422   -1.0045    0.0000 H       1  UNL1        0.0301
     53 H          10.1440   -0.3147    0.0000 H       1  UNL1        0.0301
     54 H           5.4488    2.9803    0.0000 H       1  UNL1        0.0786
     55 H           6.0010   -1.7800    0.0000 H       1  UNL1        0.1084
     56 H          10.9353    0.8162    0.0000 H       1  UNL1        0.2098
     57 H           6.0010   -4.0200    0.0000 H       1  UNL1        0.0683
     58 H           4.5981   -4.2100    0.0000 H       1  UNL1        0.0648
     59 H           7.3891    4.0601    0.0000 H       1  UNL1        0.0653
     60 H           4.5918    4.0708    0.0000 H       1  UNL1        0.1033
     61 H           4.2690   -1.7800    0.0000 H       1  UNL1        0.0647
     62 H           3.7320   -3.0900    0.0000 H       1  UNL1        0.0647
     63 H           6.8612    5.7063    0.0000 H       1  UNL1        0.1029
     64 H           3.8015   -1.4251    0.0000 H       1  UNL1        0.0584
     65 H           3.0044   -1.4251    0.0000 H       1  UNL1        0.0584
     66 H           6.8671   -4.5200    0.0000 H       1  UNL1        0.2102
     67 H           8.8441   -3.4373    0.0000 H       1  UNL1        0.0661
     68 H           9.4569   -4.0645    0.0000 H       1  UNL1        0.0661
     69 H          10.0840   -3.4517    0.0000 H       1  UNL1        0.0661
     70 H           4.5981   -5.2100    0.0000 H       1  UNL1        0.2100
     71 H           3.4030   -4.5200    0.0000 H       1  UNL1        0.2100
     72 H           2.0000   -2.0900    0.0000 H       1  UNL1        0.2095
@<TRIPOS>BOND
     1     1    25    1
     2     1    26    1
     3     2    22    1
     4    29     2    1
     5    23     3    1
     6     3    56    1
     7     4    26    2
     8     5    29    1
     9     5    34    1
    10     6    27    1
    11     6    38    1
    12     7    27    2
    13     8    33   ar
    14     8    36   ar
    15    30     9    1
    16     9    66    1
    17    32    10    1
    18    10    70    1
    19    35    11    1
    20    11    71    1
    21    12    37    1
    22    12    72    1
    23    13    14    1
    24    13    15    1
    25    13    17    1
    26    13    21    1
    27    14    16    1
    28    14    18    1
    29    14    39    1
    30    15    19    1
    31    15    26    1
    32    15    40    1
    33    16    20    1
    34    16    22    2
    35    17    25    1
    36    17    41    1
    37    17    42    1
    38    18    23    1
    39    18    43    1
    40    18    44    1
    41    19    22    1
    42    19    45    1
    43    19    46    1
    44    20    24    1
    45    20    27    1
    46    20    47    1
    47    21    48    1
    48    21    49    1
    49    21    50    1
    50    23    24    1
    51    23    51    1
    52    24    52    1
    53    24    53    1
    54    25    28    1
    55    25    54    1
    56    28    31   ar
    57    28    33   ar
    58    29    30    1
    59    29    55    1
    60    30    32    1
    61    30    57    1
    62    31    36   ar
    63    31    59    1
    64    32    35    1
    65    32    58    1
    66    33    60    1
    67    34    35    1
    68    34    37    1
    69    34    61    1
    70    35    62    1
    71    36    63    1
    72    37    64    1
    73    37    65    1
    74    38    67    1
    75    38    68    1
    76    38    69    1
