@<TRIPOS>MOLECULE
IMPHY011970
 82 86 0 0 0
SMALL
GASTEIGER

@<TRIPOS>ATOM
      1 O           2.5357   -2.5933    0.0000 O.3     1  UNL1       -0.3887
      2 O           2.5519   -0.5017    0.0000 O.3     1  UNL1       -0.3892
      3 O          11.4608    0.4932    0.0000 O.3     1  UNL1       -0.4802
      4 O          10.6064   -1.0134    0.0000 O.2     1  UNL1       -0.2504
      5 C           7.0628   -1.0410    0.0000 C.3     1  UNL1       -0.0194
      6 C           6.1968   -0.5410    0.0000 C.3     1  UNL1       -0.0257
      7 C           5.2868   -1.0478    0.0000 C.3     1  UNL1       -0.0226
      8 C           7.9288   -0.5410    0.0000 C.3     1  UNL1       -0.0051
      9 C           5.2787   -2.0894    0.0000 C.3     1  UNL1       -0.0277
     10 C           7.0789   -2.0825    0.0000 C.3     1  UNL1       -0.0463
     11 C           6.1808   -2.6102    0.0000 C.3     1  UNL1       -0.0486
     12 C           7.9288    0.4590    0.0000 C.2     1  UNL1       -0.0629
     13 C           4.3433   -2.6391    0.0000 C.3     1  UNL1       -0.0032
     14 C           8.8228    0.9937    0.0000 C.3     1  UNL1       -0.0031
     15 C           6.1968    0.4590    0.0000 C.3     1  UNL1       -0.0306
     16 C           4.3599   -0.4837    0.0000 C.3     1  UNL1       -0.0184
     17 C           8.8228   -1.0756    0.0000 C.3     1  UNL1       -0.0424
     18 C           9.7288    0.4799    0.0000 C.3     1  UNL1        0.0741
     19 C           7.7056   -1.8070    0.0000 C.3     1  UNL1       -0.0585
     20 C           9.7288   -0.5618    0.0000 C.3     1  UNL1       -0.0359
     21 C           3.4037   -2.0966    0.0000 C.3     1  UNL1        0.0864
     22 C           5.2945   -0.0478    0.0000 C.3     1  UNL1       -0.0589
     23 C           3.4120   -1.0117    0.0000 C.3     1  UNL1        0.0821
     24 C           7.0628    0.9590    0.0000 C.2     1  UNL1       -0.0836
     25 C           8.2709   -1.4806    0.0000 C.3     1  UNL1       -0.0553
     26 C           8.7977    2.0784    0.0000 C.3     1  UNL1       -0.0403
     27 C          10.6726    1.0151    0.0000 C.3     1  UNL1       -0.0362
     28 C           9.7288    2.6353    0.0000 C.3     1  UNL1       -0.0343
     29 C           3.8467   -3.5071    0.0000 C.3     1  UNL1       -0.0571
     30 C           4.8466   -3.5032    0.0000 C.3     1  UNL1       -0.0571
     31 C          10.6726    2.1001    0.0000 C.3     1  UNL1       -0.0468
     32 C          10.5987   -0.0135    0.0000 C.2     1  UNL1        0.3115
     33 C          10.2188    3.5071    0.0000 C.3     1  UNL1       -0.0598
     34 C           9.2188    3.4955    0.0000 C.3     1  UNL1       -0.0598
     35 H           6.9329   -0.1160    0.0000 H       1  UNL1        0.0315
     36 H           5.2820   -2.9394    0.0000 H       1  UNL1        0.0312
     37 H           7.2969   -2.6629    0.0000 H       1  UNL1        0.0271
     38 H           7.6880   -1.9670    0.0000 H       1  UNL1        0.0271
     39 H           5.7835   -3.0862    0.0000 H       1  UNL1        0.0268
     40 H           6.5818   -3.0831    0.0000 H       1  UNL1        0.0268
     41 H           9.5522    1.4300    0.0000 H       1  UNL1        0.0357
     42 H           5.9847    1.0416    0.0000 H       1  UNL1        0.0310
     43 H           5.5862    0.3514    0.0000 H       1  UNL1        0.0310
     44 H           4.7681   -0.0171    0.0000 H       1  UNL1        0.0296
     45 H           3.9700   -0.0017    0.0000 H       1  UNL1        0.0296
     46 H           8.4182   -1.5454    0.0000 H       1  UNL1        0.0274
     47 H           9.2164   -1.5546    0.0000 H       1  UNL1        0.0274
     48 H           7.2306   -2.2055    0.0000 H       1  UNL1        0.0235
     49 H           8.1041   -2.2820    0.0000 H       1  UNL1        0.0235
     50 H           8.1805   -1.4085    0.0000 H       1  UNL1        0.0235
     51 H           9.9379   -1.1455    0.0000 H       1  UNL1        0.0276
     52 H          10.3397   -0.4557    0.0000 H       1  UNL1        0.0276
     53 H           3.4025   -2.7166    0.0000 H       1  UNL1        0.0624
     54 H           5.9145   -0.0526    0.0000 H       1  UNL1        0.0235
     55 H           5.2993    0.5721    0.0000 H       1  UNL1        0.0235
     56 H           4.6745   -0.0431    0.0000 H       1  UNL1        0.0235
     57 H           3.4204   -0.3917    0.0000 H       1  UNL1        0.0619
     58 H           7.0628    1.5790    0.0000 H       1  UNL1        0.0572
     59 H           7.6884   -1.6927    0.0000 H       1  UNL1        0.0238
     60 H           8.4830   -2.0632    0.0000 H       1  UNL1        0.0238
     61 H           8.8535   -1.2685    0.0000 H       1  UNL1        0.0238
     62 H           8.5752    2.6571    0.0000 H       1  UNL1        0.0276
     63 H           8.1894    1.9582    0.0000 H       1  UNL1        0.0276
     64 H          10.8817    0.4314    0.0000 H       1  UNL1        0.0276
     65 H          11.2835    1.1212    0.0000 H       1  UNL1        0.0276
     66 H           3.3085   -3.1992    0.0000 H       1  UNL1        0.0236
     67 H           3.5387   -4.0452    0.0000 H       1  UNL1        0.0236
     68 H           4.3848   -3.8150    0.0000 H       1  UNL1        0.0236
     69 H           4.3109   -3.8153    0.0000 H       1  UNL1        0.0236
     70 H           5.1587   -4.0390    0.0000 H       1  UNL1        0.0236
     71 H           5.3824   -3.1912    0.0000 H       1  UNL1        0.0236
     72 H          11.2835    1.9940    0.0000 H       1  UNL1        0.0271
     73 H          10.8817    2.6838    0.0000 H       1  UNL1        0.0271
     74 H           2.0000   -2.2812    0.0000 H       1  UNL1        0.2099
     75 H          10.7593    3.2033    0.0000 H       1  UNL1        0.0235
     76 H          10.5226    4.0476    0.0000 H       1  UNL1        0.0235
     77 H           9.6783    3.8108    0.0000 H       1  UNL1        0.0235
     78 H           9.7522    3.8117    0.0000 H       1  UNL1        0.0235
     79 H           8.9027    4.0288    0.0000 H       1  UNL1        0.0235
     80 H           8.6855    3.1793    0.0000 H       1  UNL1        0.0235
     81 H           2.5590    0.1183    0.0000 H       1  UNL1        0.2099
     82 H          12.0001    0.1874    0.0000 H       1  UNL1        0.2951
@<TRIPOS>BOND
     1    21     1    1
     2     1    74    1
     3    23     2    1
     4     2    81    1
     5     3    32    1
     6     3    82    1
     7     4    32    2
     8     5     6    1
     9     5     8    1
    10     5    10    1
    11     5    19    1
    12     6     7    1
    13     6    15    1
    14     6    35    1
    15     7     9    1
    16     7    16    1
    17     7    22    1
    18     8    12    1
    19     8    17    1
    20     8    25    1
    21     9    11    1
    22     9    13    1
    23     9    36    1
    24    10    11    1
    25    10    37    1
    26    10    38    1
    27    11    39    1
    28    11    40    1
    29    12    14    1
    30    12    24    2
    31    13    21    1
    32    13    29    1
    33    13    30    1
    34    14    18    1
    35    14    26    1
    36    14    41    1
    37    15    24    1
    38    15    42    1
    39    15    43    1
    40    16    23    1
    41    16    44    1
    42    16    45    1
    43    17    20    1
    44    17    46    1
    45    17    47    1
    46    18    20    1
    47    18    27    1
    48    18    32    1
    49    19    48    1
    50    19    49    1
    51    19    50    1
    52    20    51    1
    53    20    52    1
    54    21    23    1
    55    21    53    1
    56    22    54    1
    57    22    55    1
    58    22    56    1
    59    23    57    1
    60    24    58    1
    61    25    59    1
    62    25    60    1
    63    25    61    1
    64    26    28    1
    65    26    62    1
    66    26    63    1
    67    27    31    1
    68    27    64    1
    69    27    65    1
    70    28    31    1
    71    28    33    1
    72    28    34    1
    73    29    66    1
    74    29    67    1
    75    29    68    1
    76    30    69    1
    77    30    70    1
    78    30    71    1
    79    31    72    1
    80    31    73    1
    81    33    75    1
    82    33    76    1
    83    33    77    1
    84    34    78    1
    85    34    79    1
    86    34    80    1
