@<TRIPOS>MOLECULE
IMPHY009718
 42 43 0 0 0
SMALL
GASTEIGER

@<TRIPOS>ATOM
      1 O           2.6126    2.2754    0.0000 O.3     1  UNL1       -0.3888
      2 C           5.6261    0.3258    0.0000 C.3     1  UNL1       -0.0167
      3 C           6.5708    0.6352    0.0000 C.3     1  UNL1       -0.0371
      4 C           4.8412    0.9454    0.0000 C.3     1  UNL1       -0.0408
      5 C           3.8674    0.7180    0.0000 C.3     1  UNL1       -0.0118
      6 C           5.6311   -0.6742    0.0000 C.2     1  UNL1       -0.0672
      7 C           7.1584   -0.1666    0.0000 C.3     1  UNL1       -0.0462
      8 C           6.5788   -0.9742    0.0000 C.3     1  UNL1       -0.0310
      9 C           3.4380   -0.1851    0.0000 C.3     1  UNL1       -0.0439
     10 C           3.2400    1.4967    0.0000 C.3     1  UNL1        0.0634
     11 C           4.8524   -1.3016    0.0000 C.2     1  UNL1       -0.0731
     12 C           3.8764   -1.0839    0.0000 C.3     1  UNL1       -0.0314
     13 C           6.8767    1.5873    0.0000 C.3     1  UNL1       -0.0619
     14 C           2.4613    0.8693    0.0000 C.3     1  UNL1       -0.0361
     15 C           4.0187    2.1241    0.0000 C.3     1  UNL1       -0.0361
     16 C           5.0798   -2.2754    0.0000 C.3     1  UNL1       -0.0435
     17 H           5.7748    1.1627    0.0000 H       1  UNL1        0.0348
     18 H           5.9681    1.2346    0.0000 H       1  UNL1        0.0304
     19 H           5.3240    1.3343    0.0000 H       1  UNL1        0.0275
     20 H           4.5694    1.5026    0.0000 H       1  UNL1        0.0275
     21 H           4.1441    1.5217    0.0000 H       1  UNL1        0.0329
     22 H           7.6213   -0.5790    0.0000 H       1  UNL1        0.0271
     23 H           7.6172    0.2504    0.0000 H       1  UNL1        0.0271
     24 H           6.3306   -1.5424    0.0000 H       1  UNL1        0.0310
     25 H           7.1177   -1.2808    0.0000 H       1  UNL1        0.0310
     26 H           2.9513    0.1990    0.0000 H       1  UNL1        0.0272
     27 H           2.9552   -0.5741    0.0000 H       1  UNL1        0.0272
     28 H           3.2726   -1.2249    0.0000 H       1  UNL1        0.0310
     29 H           3.8794   -1.7039    0.0000 H       1  UNL1        0.0310
     30 H           7.4670    1.3976    0.0000 H       1  UNL1        0.0233
     31 H           7.0664    2.1776    0.0000 H       1  UNL1        0.0233
     32 H           6.2864    1.7770    0.0000 H       1  UNL1        0.0233
     33 H           2.0723    1.3521    0.0000 H       1  UNL1        0.0257
     34 H           1.9785    0.4803    0.0000 H       1  UNL1        0.0257
     35 H           2.8502    0.3865    0.0000 H       1  UNL1        0.0257
     36 H           4.4077    1.6413    0.0000 H       1  UNL1        0.0257
     37 H           4.5015    2.5130    0.0000 H       1  UNL1        0.0257
     38 H           3.6297    2.6069    0.0000 H       1  UNL1        0.0257
     39 H           4.4760   -2.4164    0.0000 H       1  UNL1        0.0274
     40 H           5.2207   -2.8792    0.0000 H       1  UNL1        0.0274
     41 H           5.6835   -2.1344    0.0000 H       1  UNL1        0.0274
     42 H           2.0000    2.1799    0.0000 H       1  UNL1        0.2101
@<TRIPOS>BOND
     1     1    10    1
     2     1    42    1
     3     2     3    1
     4     2     4    1
     5     2     6    1
     6     2    17    1
     7     3     7    1
     8     3    13    1
     9     3    18    1
    10     4     5    1
    11     4    19    1
    12     4    20    1
    13     5     9    1
    14     5    10    1
    15     5    21    1
    16     6     8    1
    17     6    11    2
    18     7     8    1
    19     7    22    1
    20     7    23    1
    21     8    24    1
    22     8    25    1
    23     9    12    1
    24     9    26    1
    25     9    27    1
    26    10    14    1
    27    10    15    1
    28    11    12    1
    29    11    16    1
    30    12    28    1
    31    12    29    1
    32    13    30    1
    33    13    31    1
    34    13    32    1
    35    14    33    1
    36    14    34    1
    37    14    35    1
    38    15    36    1
    39    15    37    1
    40    15    38    1
    41    16    39    1
    42    16    40    1
    43    16    41    1
