@<TRIPOS>MOLECULE
IMPHY014055
 51 53 0 0 0
SMALL
GASTEIGER

@<TRIPOS>ATOM
      1 O           3.2690    1.7705    0.0000 O.3     1  UNL1       -0.3856
      2 O           2.5369    0.7705    0.0000 O.3     1  UNL1       -0.3946
      3 O           4.2690    3.5026    0.0000 O.3     1  UNL1       -0.3922
      4 O           8.6651    2.2947    0.0000 O.3     1  UNL1       -0.4914
      5 O           8.6651    0.2464    0.0000 O.3     1  UNL1       -0.5033
      6 O           3.4030   -2.7295    0.0000 O.3     1  UNL1       -0.4914
      7 O           5.1350   -3.7295    0.0000 O.3     1  UNL1       -0.5033
      8 C           4.2690    0.7705    0.0000 C.3     1  UNL1        0.0243
      9 C           4.2690    1.7705    0.0000 C.3     1  UNL1        0.0987
     10 C           5.1350    0.2705    0.0000 C.3     1  UNL1        0.0173
     11 C           5.1350    2.2705    0.0000 C.3     1  UNL1        0.0042
     12 C           6.0010    0.7705    0.0000 C.ar    1  UNL1       -0.0326
     13 C           6.0010    1.7705    0.0000 C.ar    1  UNL1       -0.0371
     14 C           3.4030    0.2705    0.0000 C.3     1  UNL1        0.0506
     15 C           3.7690    2.6365    0.0000 C.3     1  UNL1        0.0736
     16 C           5.1350   -0.7295    0.0000 C.ar    1  UNL1       -0.0358
     17 C           6.8950    0.2358    0.0000 C.ar    1  UNL1       -0.0125
     18 C           6.8950    2.3052    0.0000 C.ar    1  UNL1       -0.0128
     19 C           4.2690   -1.2295    0.0000 C.ar    1  UNL1       -0.0125
     20 C           6.0010   -1.2295    0.0000 C.ar    1  UNL1       -0.0543
     21 C           7.8010    0.7497    0.0000 C.ar    1  UNL1        0.1587
     22 C           7.8010    1.7913    0.0000 C.ar    1  UNL1        0.1615
     23 C           4.2690   -2.2295    0.0000 C.ar    1  UNL1        0.1615
     24 C           6.0010   -2.2295    0.0000 C.ar    1  UNL1       -0.0162
     25 C           5.1350   -2.7295    0.0000 C.ar    1  UNL1        0.1585
     26 C           8.6613    3.2946    0.0000 C.3     1  UNL1        0.0790
     27 C           3.4030   -3.7295    0.0000 C.3     1  UNL1        0.0790
     28 H           4.2690    0.1505    0.0000 H       1  UNL1        0.0361
     29 H           5.6720   -0.0395    0.0000 H       1  UNL1        0.0402
     30 H           5.5335    2.7454    0.0000 H       1  UNL1        0.0342
     31 H           4.7365    2.7454    0.0000 H       1  UNL1        0.0342
     32 H           3.0044   -0.2044    0.0000 H       1  UNL1        0.0561
     33 H           3.8015   -0.2044    0.0000 H       1  UNL1        0.0561
     34 H           3.2940    3.0351    0.0000 H       1  UNL1        0.0586
     35 H           3.2940    2.2380    0.0000 H       1  UNL1        0.0586
     36 H           6.8878   -0.3841    0.0000 H       1  UNL1        0.0658
     37 H           2.9590    2.3074    0.0000 H       1  UNL1        0.2103
     38 H           6.8878    2.9251    0.0000 H       1  UNL1        0.0658
     39 H           3.7320   -0.9195    0.0000 H       1  UNL1        0.0658
     40 H           6.5380   -0.9195    0.0000 H       1  UNL1        0.0622
     41 H           2.0000    0.4605    0.0000 H       1  UNL1        0.2094
     42 H           3.9590    4.0395    0.0000 H       1  UNL1        0.2095
     43 H           6.5380   -2.5395    0.0000 H       1  UNL1        0.0655
     44 H           9.2033    0.5543    0.0000 H       1  UNL1        0.2923
     45 H           9.2813    3.2970    0.0000 H       1  UNL1        0.0660
     46 H           8.6589    3.9146    0.0000 H       1  UNL1        0.0660
     47 H           8.0413    3.2923    0.0000 H       1  UNL1        0.0660
     48 H           5.6720   -4.0395    0.0000 H       1  UNL1        0.2923
     49 H           2.7830   -3.7295    0.0000 H       1  UNL1        0.0660
     50 H           3.4030   -4.3495    0.0000 H       1  UNL1        0.0660
     51 H           4.0230   -3.7295    0.0000 H       1  UNL1        0.0660
@<TRIPOS>BOND
     1     9     1    1
     2     1    37    1
     3     2    14    1
     4     2    41    1
     5     3    15    1
     6     3    42    1
     7     4    22    1
     8     4    26    1
     9     5    21    1
    10     5    44    1
    11     6    23    1
    12     6    27    1
    13     7    25    1
    14     7    48    1
    15     8     9    1
    16     8    10    1
    17     8    14    1
    18     8    28    1
    19     9    11    1
    20     9    15    1
    21    10    12    1
    22    10    16    1
    23    10    29    1
    24    11    13    1
    25    11    30    1
    26    11    31    1
    27    12    13   ar
    28    12    17   ar
    29    13    18   ar
    30    14    32    1
    31    14    33    1
    32    15    34    1
    33    15    35    1
    34    16    19   ar
    35    16    20   ar
    36    17    21   ar
    37    17    36    1
    38    18    22   ar
    39    18    38    1
    40    19    23   ar
    41    19    39    1
    42    20    24   ar
    43    20    40    1
    44    21    22   ar
    45    23    25   ar
    46    24    25   ar
    47    24    43    1
    48    26    45    1
    49    26    46    1
    50    26    47    1
    51    27    49    1
    52    27    50    1
    53    27    51    1
