@<TRIPOS>MOLECULE
IMPHY013143
 45 48 0 0 0
SMALL
GASTEIGER

@<TRIPOS>ATOM
      1 O           9.6654   -0.9808    0.0000 O.3     1  UNL1       -0.4814
      2 O           7.8167    2.1315    0.0000 O.3     1  UNL1       -0.5053
      3 O           4.3198   -1.9377    0.0000 O.3     1  UNL1       -0.4895
      4 O           6.0682    2.0969    0.0000 O.2     1  UNL1       -0.2864
      5 O           2.5381   -0.9273    0.0000 O.3     1  UNL1       -0.5032
      6 N           6.0682   -0.9031    0.0000 N.ar    1  UNL1       -0.3396
      7 C          10.6092   -0.4456    0.0000 C.3     1  UNL1        0.1235
      8 C           6.9343   -0.4031    0.0000 C.ar    1  UNL1        0.0601
      9 C           6.9343    0.5969    0.0000 C.ar    1  UNL1        0.0879
     10 C           8.7343   -0.4239    0.0000 C.ar    1  UNL1        0.1343
     11 C           8.7343    0.6177    0.0000 C.ar    1  UNL1        0.0587
     12 C           5.2022   -0.4031    0.0000 C.ar    1  UNL1        0.0988
     13 C           7.8282    1.1316    0.0000 C.ar    1  UNL1        0.1403
     14 C           7.8282   -0.9378    0.0000 C.ar    1  UNL1        0.0052
     15 C           5.2022    0.5969    0.0000 C.ar    1  UNL1        0.0497
     16 C          10.6092    0.6394    0.0000 C.2     1  UNL1       -0.0408
     17 C           6.0682    1.0969    0.0000 C.ar    1  UNL1        0.2007
     18 C           9.6654    1.1746    0.0000 C.2     1  UNL1       -0.0478
     19 C          11.6092   -0.4495    0.0000 C.3     1  UNL1       -0.0215
     20 C          11.1059   -1.3136    0.0000 C.3     1  UNL1       -0.0215
     21 C           4.3083   -0.9378    0.0000 C.ar    1  UNL1        0.1855
     22 C           6.0682   -1.9031    0.0000 C.3     1  UNL1        0.0125
     23 C           4.3083    1.1316    0.0000 C.ar    1  UNL1       -0.0452
     24 C           3.4022   -0.4239    0.0000 C.ar    1  UNL1        0.1606
     25 C           3.4022    0.6177    0.0000 C.ar    1  UNL1       -0.0157
     26 C           3.4597   -2.4477    0.0000 C.3     1  UNL1        0.0791
     27 H           7.8210   -1.5577    0.0000 H       1  UNL1        0.0675
     28 H          11.1450    0.9515    0.0000 H       1  UNL1        0.0611
     29 H           9.6583    1.7946    0.0000 H       1  UNL1        0.0624
     30 H          11.6068   -1.0694    0.0000 H       1  UNL1        0.0271
     31 H          12.2292   -0.4518    0.0000 H       1  UNL1        0.0271
     32 H          11.6116    0.1705    0.0000 H       1  UNL1        0.0271
     33 H          10.5678   -1.6215    0.0000 H       1  UNL1        0.0271
     34 H          11.4138   -1.8517    0.0000 H       1  UNL1        0.0271
     35 H          11.6440   -1.0056    0.0000 H       1  UNL1        0.0271
     36 H           5.4482   -1.9031    0.0000 H       1  UNL1        0.0456
     37 H           6.0682   -2.5231    0.0000 H       1  UNL1        0.0456
     38 H           6.6882   -1.9031    0.0000 H       1  UNL1        0.0456
     39 H           4.3154    1.7515    0.0000 H       1  UNL1        0.0626
     40 H           2.8665    0.9298    0.0000 H       1  UNL1        0.0655
     41 H           8.3500    2.4477    0.0000 H       1  UNL1        0.2922
     42 H           2.0000   -0.6193    0.0000 H       1  UNL1        0.2923
     43 H           3.1435   -1.9144    0.0000 H       1  UNL1        0.0660
     44 H           2.9263   -2.7639    0.0000 H       1  UNL1        0.0660
     45 H           3.7758   -2.9810    0.0000 H       1  UNL1        0.0660
@<TRIPOS>BOND
     1     1     7    1
     2     1    10    1
     3     2    13    1
     4     2    41    1
     5     3    21    1
     6     3    26    1
     7     4    17    2
     8     5    24    1
     9     5    42    1
    10     6     8   ar
    11     6    12   ar
    12     6    22    1
    13     7    16    1
    14     7    19    1
    15     7    20    1
    16     8     9   ar
    17     8    14   ar
    18     9    13   ar
    19     9    17   ar
    20    10    11   ar
    21    10    14   ar
    22    11    13   ar
    23    11    18    1
    24    12    15   ar
    25    12    21   ar
    26    14    27    1
    27    15    17   ar
    28    15    23   ar
    29    16    18    2
    30    16    28    1
    31    18    29    1
    32    19    30    1
    33    19    31    1
    34    19    32    1
    35    20    33    1
    36    20    34    1
    37    20    35    1
    38    21    24   ar
    39    22    36    1
    40    22    37    1
    41    22    38    1
    42    23    25   ar
    43    23    39    1
    44    24    25   ar
    45    25    40    1
    46    26    43    1
    47    26    44    1
    48    26    45    1
