@<TRIPOS>MOLECULE
IMPHY002685
 41 44 0 0 0
SMALL
GASTEIGER

@<TRIPOS>ATOM
      1 O           7.3180    1.3206    0.0000 O.3     1  UNL1       -0.4910
      2 O           3.7782    1.3070    0.0000 O.3     1  UNL1       -0.5028
      3 O           5.5442    2.3448    0.0000 O.3     1  UNL1       -0.4885
      4 N           6.3903   -2.2214    0.0000 N.3     1  UNL1       -0.3087
      5 C           5.5321   -1.7245    0.0000 C.3     1  UNL1        0.0379
      6 C           5.5321   -0.7245    0.0000 C.ar    1  UNL1       -0.0121
      7 C           4.6660   -2.2245    0.0000 C.3     1  UNL1       -0.0075
      8 C           6.4421   -0.2177    0.0000 C.ar    1  UNL1        0.0046
      9 C           4.6660   -0.2245    0.0000 C.ar    1  UNL1        0.0326
     10 C           7.2814   -0.7459    0.0000 C.3     1  UNL1       -0.0112
     11 C           7.2558   -1.7373    0.0000 C.3     1  UNL1        0.0006
     12 C           3.8000   -1.7245    0.0000 C.ar    1  UNL1       -0.0377
     13 C           3.8000   -0.7245    0.0000 C.ar    1  UNL1       -0.0107
     14 C           6.4501    0.8239    0.0000 C.ar    1  UNL1        0.1687
     15 C           4.6500    0.8170    0.0000 C.ar    1  UNL1        0.1704
     16 C           5.5480    1.3448    0.0000 C.ar    1  UNL1        0.2042
     17 C           2.9061   -2.2592    0.0000 C.ar    1  UNL1       -0.0579
     18 C           2.9061   -0.1898    0.0000 C.ar    1  UNL1       -0.0536
     19 C           2.0000   -1.7453    0.0000 C.ar    1  UNL1       -0.0615
     20 C           2.0000   -0.7037    0.0000 C.ar    1  UNL1       -0.0612
     21 C           7.3219    2.3206    0.0000 C.3     1  UNL1        0.0790
     22 C           4.6762    2.8414    0.0000 C.3     1  UNL1        0.0791
     23 H           5.5315   -2.5745    0.0000 H       1  UNL1        0.0513
     24 H           4.2675   -2.6994    0.0000 H       1  UNL1        0.0332
     25 H           5.0646   -2.6994    0.0000 H       1  UNL1        0.0332
     26 H           7.8885   -0.8718    0.0000 H       1  UNL1        0.0327
     27 H           7.5131   -0.1708    0.0000 H       1  UNL1        0.0327
     28 H           6.3857   -2.8414    0.0000 H       1  UNL1        0.1225
     29 H           7.4575   -2.3235    0.0000 H       1  UNL1        0.0427
     30 H           7.8685   -1.6429    0.0000 H       1  UNL1        0.0427
     31 H           2.9132   -2.8791    0.0000 H       1  UNL1        0.0620
     32 H           2.9132    0.4301    0.0000 H       1  UNL1        0.0624
     33 H           1.4643   -2.0574    0.0000 H       1  UNL1        0.0618
     34 H           1.4643   -0.3916    0.0000 H       1  UNL1        0.0618
     35 H           3.7711    1.9269    0.0000 H       1  UNL1        0.2923
     36 H           7.9419    2.3182    0.0000 H       1  UNL1        0.0660
     37 H           7.3243    2.9406    0.0000 H       1  UNL1        0.0660
     38 H           6.7019    2.3230    0.0000 H       1  UNL1        0.0660
     39 H           4.9841    3.3795    0.0000 H       1  UNL1        0.0660
     40 H           4.1381    3.1493    0.0000 H       1  UNL1        0.0660
     41 H           4.3683    2.3033    0.0000 H       1  UNL1        0.0660
@<TRIPOS>BOND
     1     1    14    1
     2     1    21    1
     3     2    15    1
     4     2    35    1
     5     3    16    1
     6     3    22    1
     7     4     5    1
     8     4    11    1
     9     4    28    1
    10     5     6    1
    11     5     7    1
    12     5    23    1
    13     6     8   ar
    14     6     9   ar
    15     7    12    1
    16     7    24    1
    17     7    25    1
    18     8    10    1
    19     8    14   ar
    20     9    13    1
    21     9    15   ar
    22    10    11    1
    23    10    26    1
    24    10    27    1
    25    11    29    1
    26    11    30    1
    27    12    13   ar
    28    12    17   ar
    29    13    18   ar
    30    14    16   ar
    31    15    16   ar
    32    17    19   ar
    33    17    31    1
    34    18    20   ar
    35    18    32    1
    36    19    20   ar
    37    19    33    1
    38    20    34    1
    39    21    36    1
    40    21    37    1
    41    21    38    1
    42    22    39    1
    43    22    40    1
    44    22    41    1
