@<TRIPOS>MOLECULE
IMPHY017698
 19 20 0 0 0
SMALL
GASTEIGER

@<TRIPOS>ATOM
      1 O           2.8090    0.3849    0.0000 O.2     1  UNL1       -0.4674
      2 O           4.1079   -1.0577    0.0000 O.2     1  UNL1       -0.4674
      3 C           4.5691    0.6636    0.0000 C.3     1  UNL1        0.0636
      4 C           3.6180    0.9726    0.0000 C.ar    1  UNL1        0.1121
      5 C           4.7770   -0.3145    0.0000 C.ar    1  UNL1        0.1121
      6 C           3.3090    1.9237    0.0000 C.ar    1  UNL1       -0.0203
      7 C           5.6906   -0.7213    0.0000 C.ar    1  UNL1       -0.0203
      8 C           2.3090    1.9237    0.0000 C.ar    1  UNL1       -0.0236
      9 C           5.5860   -1.7158    0.0000 C.ar    1  UNL1       -0.0236
     10 C           2.0000    0.9726    0.0000 C.ar    1  UNL1        0.0921
     11 C           4.6079   -1.9237    0.0000 C.ar    1  UNL1        0.0921
     12 H           5.1887    0.6853    0.0000 H       1  UNL1        0.0423
     13 H           4.6554    1.2776    0.0000 H       1  UNL1        0.0423
     14 H           3.6734    2.4253    0.0000 H       1  UNL1        0.0652
     15 H           6.2275   -0.4113    0.0000 H       1  UNL1        0.0652
     16 H           1.9446    2.4253    0.0000 H       1  UNL1        0.0649
     17 H           6.0468   -2.1306    0.0000 H       1  UNL1        0.0649
     18 H           1.4103    0.7810    0.0000 H       1  UNL1        0.1029
     19 H           4.3557   -2.4901    0.0000 H       1  UNL1        0.1029
@<TRIPOS>BOND
     1     1     4   ar
     2     1    10   ar
     3     2     5   ar
     4     2    11   ar
     5     3     4    1
     6     3     5    1
     7     3    12    1
     8     3    13    1
     9     4     6   ar
    10     5     7   ar
    11     6     8   ar
    12     6    14    1
    13     7     9   ar
    14     7    15    1
    15     8    10   ar
    16     8    16    1
    17     9    11   ar
    18     9    17    1
    19    10    18    1
    20    11    19    1
