@<TRIPOS>MOLECULE
IMPHY003047
 801 838 0 0 0
SMALL
GASTEIGER

@<TRIPOS>ATOM
      1 O          36.8638   -4.0672    0.0000 O.3     1  UNL1       -0.3391
      2 O          34.6947   -4.1900    0.0000 O.3     1  UNL1       -0.3391
      3 O          56.1191   -0.6560    0.0000 O.3     1  UNL1       -0.3391
      4 O          54.0618   -1.3546    0.0000 O.3     1  UNL1       -0.3391
      5 O          39.0111   -3.7364    0.0000 O.3     1  UNL1       -0.3391
      6 O          51.9470   -1.8523    0.0000 O.3     1  UNL1       -0.3391
      7 O          41.1803   -3.6135    0.0000 O.3     1  UNL1       -0.3391
      8 O          32.5474   -4.5208    0.0000 O.3     1  UNL1       -0.3391
      9 O          49.8898   -2.5510    0.0000 O.3     1  UNL1       -0.3391
     10 O          43.3275   -3.2827    0.0000 O.3     1  UNL1       -0.3391
     11 O          58.2339   -0.1583    0.0000 O.3     1  UNL1       -0.3391
     12 O          47.7749   -3.0486    0.0000 O.3     1  UNL1       -0.3391
     13 O          45.4967   -3.1598    0.0000 O.3     1  UNL1       -0.3391
     14 O          30.3783   -4.6437    0.0000 O.3     1  UNL1       -0.3391
     15 O          60.2911    0.5403    0.0000 O.3     1  UNL1       -0.3391
     16 O          28.2310   -4.9745    0.0000 O.3     1  UNL1       -0.3391
     17 O          62.4059    1.0380    0.0000 O.3     1  UNL1       -0.3391
     18 O          26.0619   -5.0974    0.0000 O.3     1  UNL1       -0.3391
     19 O          64.4632    1.7366    0.0000 O.3     1  UNL1       -0.3391
     20 O          23.9146   -5.4282    0.0000 O.3     1  UNL1       -0.3391
     21 O          66.5780    2.2343    0.0000 O.3     1  UNL1       -0.3391
     22 O          34.6207   -5.6023    0.0000 O.3     1  UNL1       -0.3363
     23 O          55.0195    0.3731    0.0000 O.3     1  UNL1       -0.3363
     24 O          36.4978   -2.7011    0.0000 O.3     1  UNL1       -0.3363
     25 O          57.8468   -1.6137    0.0000 O.3     1  UNL1       -0.3363
     26 O          32.1814   -3.1548    0.0000 O.3     1  UNL1       -0.3363
     27 O          53.6747   -2.8100    0.0000 O.3     1  UNL1       -0.3363
     28 O          38.9371   -5.1486    0.0000 O.3     1  UNL1       -0.3363
     29 O          40.8142   -2.2475    0.0000 O.3     1  UNL1       -0.3363
     30 O          50.8475   -0.8232    0.0000 O.3     1  UNL1       -0.3363
     31 O          43.2535   -4.6950    0.0000 O.3     1  UNL1       -0.3363
     32 O          49.5027   -4.0063    0.0000 O.3     1  UNL1       -0.3363
     33 O          45.1306   -1.7938    0.0000 O.3     1  UNL1       -0.3363
     34 O          59.1916    1.5694    0.0000 O.3     1  UNL1       -0.3363
     35 O          30.3043   -6.0560    0.0000 O.3     1  UNL1       -0.3363
     36 O          62.0188   -0.4174    0.0000 O.3     1  UNL1       -0.3363
     37 O          27.8650   -3.6085    0.0000 O.3     1  UNL1       -0.3363
     38 O          21.7455   -5.5511    0.0000 O.3     1  UNL1       -0.3391
     39 O          63.3636    2.7657    0.0000 O.3     1  UNL1       -0.3363
     40 O          25.9879   -6.5097    0.0000 O.3     1  UNL1       -0.3363
     41 O          25.1578   -3.8930    0.0000 O.3     1  UNL1       -0.3363
     42 O          66.1909    0.7790    0.0000 O.3     1  UNL1       -0.3363
     43 O          68.6352    2.9330    0.0000 O.3     1  UNL1       -0.3391
     44 O          23.2806   -6.7942    0.0000 O.3     1  UNL1       -0.3363
     45 O          65.9803    3.5160    0.0000 O.3     1  UNL1       -0.3363
     46 O          19.5982   -5.8819    0.0000 O.3     1  UNL1       -0.3391
     47 O          70.7501    3.4306    0.0000 O.3     1  UNL1       -0.3391
     48 O          20.8414   -4.3467    0.0000 O.3     1  UNL1       -0.3363
     49 O          68.8076    1.5293    0.0000 O.3     1  UNL1       -0.3363
     50 O          17.4291   -6.0047    0.0000 O.3     1  UNL1       -0.3391
     51 O          18.9642   -7.2479    0.0000 O.3     1  UNL1       -0.3363
     52 O          70.1524    4.7124    0.0000 O.3     1  UNL1       -0.3363
     53 O          72.8073    4.1293    0.0000 O.3     1  UNL1       -0.3391
     54 O          72.9796    2.7256    0.0000 O.3     1  UNL1       -0.3363
     55 O          16.5250   -4.8004    0.0000 O.3     1  UNL1       -0.3363
     56 O          15.2818   -6.3355    0.0000 O.3     1  UNL1       -0.3391
     57 O          74.9221    4.6270    0.0000 O.3     1  UNL1       -0.3391
     58 O          74.3244    5.9087    0.0000 O.3     1  UNL1       -0.3363
     59 O          14.6478   -7.7016    0.0000 O.3     1  UNL1       -0.3363
     60 O          13.1127   -6.4584    0.0000 O.3     1  UNL1       -0.3391
     61 O          76.9793    5.3256    0.0000 O.3     1  UNL1       -0.3391
     62 O          77.1517    3.9219    0.0000 O.3     1  UNL1       -0.3363
     63 O          12.2085   -5.2540    0.0000 O.3     1  UNL1       -0.3363
     64 O          10.9654   -6.7892    0.0000 O.3     1  UNL1       -0.3391
     65 O          79.0942    5.8233    0.0000 O.3     1  UNL1       -0.3391
     66 O          37.1434   -5.0265    0.0000 O.3     1  UNL1       -0.3837
     67 O          52.6351   -0.6321    0.0000 O.3     1  UNL1       -0.3837
     68 O          39.0851   -2.7399    0.0000 O.3     1  UNL1       -0.3837
     69 O          55.2920   -2.0248    0.0000 O.3     1  UNL1       -0.3837
     70 O          34.7687   -3.1936    0.0000 O.3     1  UNL1       -0.3837
     71 O          51.1200   -3.2211    0.0000 O.3     1  UNL1       -0.3837
     72 O          41.4598   -4.5728    0.0000 O.3     1  UNL1       -0.3837
     73 O          43.4016   -2.2862    0.0000 O.3     1  UNL1       -0.3837
     74 O          48.4631   -1.8284    0.0000 O.3     1  UNL1       -0.3837
     75 O          45.7762   -4.1191    0.0000 O.3     1  UNL1       -0.3837
     76 O          46.9691   -4.2444    0.0000 O.3     1  UNL1       -0.3837
     77 O          47.6909   -1.3156    0.0000 O.3     1  UNL1       -0.3837
     78 O          56.8072    0.5642    0.0000 O.3     1  UNL1       -0.3837
     79 O          32.8270   -5.4801    0.0000 O.3     1  UNL1       -0.3837
     80 O          59.4641   -0.8285    0.0000 O.3     1  UNL1       -0.3837
     81 O          30.4523   -3.6473    0.0000 O.3     1  UNL1       -0.3837
     82 O          60.9792    1.7605    0.0000 O.3     1  UNL1       -0.3837
     83 O          28.5106   -5.9338    0.0000 O.3     1  UNL1       -0.3837
     84 O          22.6351   -4.4689    0.0000 O.3     1  UNL1       -0.3837
     85 O          63.6361    0.3679    0.0000 O.3     1  UNL1       -0.3837
     86 O          78.4965    7.1050    0.0000 O.3     1  UNL1       -0.3363
     87 O          10.3314   -8.1552    0.0000 O.3     1  UNL1       -0.3363
     88 O          20.6933   -6.7554    0.0000 O.3     1  UNL1       -0.3837
     89 O          68.5351    3.9271    0.0000 O.3     1  UNL1       -0.3837
     90 O          18.3186   -4.9226    0.0000 O.3     1  UNL1       -0.3837
     91 O          71.1920    2.5345    0.0000 O.3     1  UNL1       -0.3837
     92 O          16.3769   -7.2091    0.0000 O.3     1  UNL1       -0.3837
     93 O          72.7071    5.1234    0.0000 O.3     1  UNL1       -0.3837
     94 O           8.7963   -6.9121    0.0000 O.3     1  UNL1       -0.3391
     95 O          36.6911   -7.1545    0.0000 O.3     1  UNL1       -0.3864
     96 O          52.7111    1.5421    0.0000 O.3     1  UNL1       -0.3864
     97 O          56.5086   -3.8284    0.0000 O.3     1  UNL1       -0.3864
     98 O          38.2003   -0.7524    0.0000 O.3     1  UNL1       -0.3864
     99 O          33.8839   -1.2061    0.0000 O.3     1  UNL1       -0.3864
    100 O          52.3365   -5.0247    0.0000 O.3     1  UNL1       -0.3864
    101 O          41.0075   -6.7008    0.0000 O.3     1  UNL1       -0.3864
    102 O          42.5167   -0.2988    0.0000 O.3     1  UNL1       -0.3864
    103 O          48.5390    0.3458    0.0000 O.3     1  UNL1       -0.3864
    104 O          45.3239   -6.2471    0.0000 O.3     1  UNL1       -0.3864
    105 O          48.1645   -6.2210    0.0000 O.3     1  UNL1       -0.3864
    106 O          46.8331    0.1549    0.0000 O.3     1  UNL1       -0.3864
    107 O          56.8831    2.7384    0.0000 O.3     1  UNL1       -0.3864
    108 O          32.3747   -7.6082    0.0000 O.3     1  UNL1       -0.3864
    109 O          60.6806   -2.6321    0.0000 O.3     1  UNL1       -0.3864
    110 O          29.5674   -1.6598    0.0000 O.3     1  UNL1       -0.3864
    111 O          61.0552    3.9348    0.0000 O.3     1  UNL1       -0.3864
    112 O          28.0583   -8.0618    0.0000 O.3     1  UNL1       -0.3864
    113 O          23.0874   -2.3409    0.0000 O.3     1  UNL1       -0.3864
    114 O          64.8527   -1.4358    0.0000 O.3     1  UNL1       -0.3864
    115 O          21.5782   -8.7429    0.0000 O.3     1  UNL1       -0.3864
    116 O          67.3185    5.7307    0.0000 O.3     1  UNL1       -0.3864
    117 O          75.3640    3.7308    0.0000 O.3     1  UNL1       -0.3837
    118 O          14.0022   -5.3762    0.0000 O.3     1  UNL1       -0.3837
    119 O          18.7710   -2.7945    0.0000 O.3     1  UNL1       -0.3864
    120 O          71.1160    0.3602    0.0000 O.3     1  UNL1       -0.3864
    121 O          17.2618   -9.1966    0.0000 O.3     1  UNL1       -0.3864
    122 O          71.4906    6.9271    0.0000 O.3     1  UNL1       -0.3864
    123 O          81.1514    6.5219    0.0000 O.3     1  UNL1       -0.3391
    124 O          76.8792    6.3198    0.0000 O.3     1  UNL1       -0.3837
    125 O          12.0605   -7.6628    0.0000 O.3     1  UNL1       -0.3837
    126 O          75.2881    1.5565    0.0000 O.3     1  UNL1       -0.3864
    127 O          14.4546   -3.2482    0.0000 O.3     1  UNL1       -0.3864
    128 O          75.6626    8.1234    0.0000 O.3     1  UNL1       -0.3864
    129 O          12.9454   -9.6503    0.0000 O.3     1  UNL1       -0.3864
    130 O          81.3237    5.1182    0.0000 O.3     1  UNL1       -0.3363
    131 O           5.8671   -6.8110    0.0000 O.3     1  UNL1       -0.3362
    132 O          79.5361    4.9271    0.0000 O.3     1  UNL1       -0.3837
    133 O           9.6858   -5.8299    0.0000 O.3     1  UNL1       -0.3837
    134 O          79.4601    2.7529    0.0000 O.3     1  UNL1       -0.3864
    135 O          10.1382   -3.7019    0.0000 O.3     1  UNL1       -0.3864
    136 O           6.8671   -7.8110    0.0000 O.3     1  UNL1       -0.3125
    137 O          81.0512    7.5161    0.0000 O.3     1  UNL1       -0.3837
    138 O           7.7441   -8.1164    0.0000 O.3     1  UNL1       -0.3837
    139 O          79.8347    9.3197    0.0000 O.3     1  UNL1       -0.3864
    140 O          83.2662    7.0196    0.0000 O.3     1  UNL1       -0.3391
    141 O          35.0274   -8.2479    0.0000 O.3     1  UNL1       -0.3924
    142 O          55.7872    2.3154    0.0000 O.3     1  UNL1       -0.3924
    143 O          59.5271   -2.8541    0.0000 O.3     1  UNL1       -0.3924
    144 O          36.3456   -0.0288    0.0000 O.3     1  UNL1       -0.3924
    145 O          32.0292   -0.4825    0.0000 O.3     1  UNL1       -0.3924
    146 O          55.3550   -4.0504    0.0000 O.3     1  UNL1       -0.3924
    147 O          39.3439   -7.7942    0.0000 O.3     1  UNL1       -0.3924
    148 O          40.6620    0.4249    0.0000 O.3     1  UNL1       -0.3924
    149 O          51.6151    1.1191    0.0000 O.3     1  UNL1       -0.3924
    150 O          43.6603   -7.3406    0.0000 O.3     1  UNL1       -0.3924
    151 O          59.9592    3.5118    0.0000 O.3     1  UNL1       -0.3924
    152 O          51.1829   -5.2468    0.0000 O.3     1  UNL1       -0.3924
    153 O          44.9784    0.8786    0.0000 O.3     1  UNL1       -0.3924
    154 O          30.7110   -8.7016    0.0000 O.3     1  UNL1       -0.3924
    155 O          63.6991   -1.6578    0.0000 O.3     1  UNL1       -0.3924
    156 O           8.6290  -10.1039    0.0000 O.3     1  UNL1       -0.3864
    157 O          27.7128   -0.9361    0.0000 O.3     1  UNL1       -0.3924
    158 O          64.1313    4.7081    0.0000 O.3     1  UNL1       -0.3924
    159 O          26.3946   -9.1553    0.0000 O.3     1  UNL1       -0.3924
    160 O          26.2510   -2.1135    0.0000 O.3     1  UNL1       -0.3924
    161 O          67.8712   -0.4615    0.0000 O.3     1  UNL1       -0.3924
    162 O          24.7200   -8.3076    0.0000 O.3     1  UNL1       -0.3924
    163 O          65.3664    6.1213    0.0000 O.3     1  UNL1       -0.3924
    164 O          21.9346   -2.5671    0.0000 O.3     1  UNL1       -0.3924
    165 O          69.6675   -1.0055    0.0000 O.3     1  UNL1       -0.3924
    166 O          20.4036   -8.7613    0.0000 O.3     1  UNL1       -0.3924
    167 O          69.5384    7.3177    0.0000 O.3     1  UNL1       -0.3924
    168 O          73.8396    0.1908    0.0000 O.3     1  UNL1       -0.3924
    169 O          17.6182   -3.0208    0.0000 O.3     1  UNL1       -0.3924
    170 O          83.7081    6.1234    0.0000 O.3     1  UNL1       -0.3837
    171 O           7.8452   -5.1168    0.0000 O.3     1  UNL1       -0.3837
    172 O          73.7105    8.5140    0.0000 O.3     1  UNL1       -0.3924
    173 O          16.0872   -9.2149    0.0000 O.3     1  UNL1       -0.3924
    174 O          82.6685    8.3013    0.0000 O.3     1  UNL1       -0.3363
    175 O          83.6322    3.9492    0.0000 O.3     1  UNL1       -0.3864
    176 O           6.3671   -4.2721    0.0000 O.3     1  UNL1       -0.3864
    177 O          78.0116    1.3871    0.0000 O.3     1  UNL1       -0.3924
    178 O          13.3018   -3.4745    0.0000 O.3     1  UNL1       -0.3924
    179 O           5.1350   -7.8110    0.0000 O.3     1  UNL1       -0.3404
    180 O          77.8825    9.7103    0.0000 O.3     1  UNL1       -0.3924
    181 O          10.4836  -10.8276    0.0000 O.3     1  UNL1       -0.3924
    182 O          85.2233    8.7124    0.0000 O.3     1  UNL1       -0.3837
    183 O          82.1837    2.5835    0.0000 O.3     1  UNL1       -0.3924
    184 O           4.3991   -4.5728    0.0000 O.3     1  UNL1       -0.3924
    185 O           6.8671   -9.8110    0.0000 O.3     1  UNL1       -0.3841
    186 O          84.0067   10.5160    0.0000 O.3     1  UNL1       -0.3864
    187 O           5.1350  -10.8110    0.0000 O.3     1  UNL1       -0.3864
    188 O           3.4030   -9.8110    0.0000 O.3     1  UNL1       -0.3865
    189 O          85.3234    7.7182    0.0000 O.3     1  UNL1       -0.3896
    190 O          82.0546   10.9066    0.0000 O.3     1  UNL1       -0.3924
    191 O           2.5369   -8.3110    0.0000 O.3     1  UNL1       -0.3924
    192 C          35.3638   -4.9332    0.0000 C.3     1  UNL1        0.2234
    193 C          54.4039   -0.4149    0.0000 C.3     1  UNL1        0.2234
    194 C          37.3638   -3.2011    0.0000 C.3     1  UNL1        0.2234
    195 C          56.9071   -1.2717    0.0000 C.3     1  UNL1        0.2234
    196 C          52.7350   -2.4680    0.0000 C.3     1  UNL1        0.2234
    197 C          39.6803   -4.4795    0.0000 C.3     1  UNL1        0.2234
    198 C          33.0474   -3.6548    0.0000 C.3     1  UNL1        0.2234
    199 C          41.6803   -2.7475    0.0000 C.3     1  UNL1        0.2234
    200 C          50.2318   -1.6113    0.0000 C.3     1  UNL1        0.2234
    201 C          43.9967   -4.0258    0.0000 C.3     1  UNL1        0.2234
    202 C          48.5630   -3.6643    0.0000 C.3     1  UNL1        0.2234
    203 C          45.9967   -2.2938    0.0000 C.3     1  UNL1        0.2234
    204 C          58.5759    0.7814    0.0000 C.3     1  UNL1        0.2234
    205 C          31.0474   -5.3869    0.0000 C.3     1  UNL1        0.2234
    206 C          61.0791   -0.0753    0.0000 C.3     1  UNL1        0.2234
    207 C          28.7310   -4.1085    0.0000 C.3     1  UNL1        0.2234
    208 C          62.7480    1.9777    0.0000 C.3     1  UNL1        0.2234
    209 C          26.7310   -5.8405    0.0000 C.3     1  UNL1        0.2234
    210 C          24.4146   -4.5622    0.0000 C.3     1  UNL1        0.2234
    211 C          65.2512    1.1210    0.0000 C.3     1  UNL1        0.2234
    212 C          22.4146   -6.2942    0.0000 C.3     1  UNL1        0.2234
    213 C          66.9200    3.1740    0.0000 C.3     1  UNL1        0.2234
    214 C          20.0982   -5.0158    0.0000 C.3     1  UNL1        0.2234
    215 C          69.4232    2.3173    0.0000 C.3     1  UNL1        0.2234
    216 C          18.0982   -6.7479    0.0000 C.3     1  UNL1        0.2234
    217 C          71.0921    4.3703    0.0000 C.3     1  UNL1        0.2234
    218 C          73.5953    3.5136    0.0000 C.3     1  UNL1        0.2234
    219 C          15.7818   -5.4695    0.0000 C.3     1  UNL1        0.2234
    220 C          36.2299   -5.4332    0.0000 C.3     1  UNL1        0.1394
    221 C          53.4642   -0.0729    0.0000 C.3     1  UNL1        0.1394
    222 C          38.1070   -2.5320    0.0000 C.3     1  UNL1        0.1394
    223 C          56.2914   -2.0597    0.0000 C.3     1  UNL1        0.1394
    224 C          33.7906   -2.9857    0.0000 C.3     1  UNL1        0.1394
    225 C          52.1194   -3.2560    0.0000 C.3     1  UNL1        0.1394
    226 C          40.5463   -4.9795    0.0000 C.3     1  UNL1        0.1394
    227 C          42.4234   -2.0783    0.0000 C.3     1  UNL1        0.1394
    228 C          49.2921   -1.2692    0.0000 C.3     1  UNL1        0.1394
    229 C          44.8627   -4.5258    0.0000 C.3     1  UNL1        0.1394
    230 C          47.9473   -4.4523    0.0000 C.3     1  UNL1        0.1394
    231 C          46.7398   -1.6247    0.0000 C.3     1  UNL1        0.1394
    232 C          57.6362    1.1234    0.0000 C.3     1  UNL1        0.1394
    233 C          31.9135   -5.8869    0.0000 C.3     1  UNL1        0.1394
    234 C          60.4635   -0.8634    0.0000 C.3     1  UNL1        0.1394
    235 C          29.4742   -3.4394    0.0000 C.3     1  UNL1        0.1394
    236 C          61.8083    2.3197    0.0000 C.3     1  UNL1        0.1394
    237 C          27.5971   -6.3405    0.0000 C.3     1  UNL1        0.1394
    238 C          23.5486   -4.0622    0.0000 C.3     1  UNL1        0.1394
    239 C          64.6355    0.3330    0.0000 C.3     1  UNL1        0.1394
    240 C          21.6715   -6.9633    0.0000 C.3     1  UNL1        0.1394
    241 C          67.5357    3.9620    0.0000 C.3     1  UNL1        0.1394
    242 C          19.2322   -4.5158    0.0000 C.3     1  UNL1        0.1394
    243 C          70.3629    1.9753    0.0000 C.3     1  UNL1        0.1394
    244 C          75.2641    5.5666    0.0000 C.3     1  UNL1        0.2234
    245 C          13.7818   -7.2016    0.0000 C.3     1  UNL1        0.2234
    246 C          17.3551   -7.4170    0.0000 C.3     1  UNL1        0.1394
    247 C          71.7077    5.1583    0.0000 C.3     1  UNL1        0.1394
    248 C          35.8638   -4.0672    0.0000 C.3     1  UNL1        0.1077
    249 C          55.1919   -1.0306    0.0000 C.3     1  UNL1        0.1077
    250 C          38.0330   -3.9443    0.0000 C.3     1  UNL1        0.1077
    251 C          33.7166   -4.3980    0.0000 C.3     1  UNL1        0.1077
    252 C          53.0770   -1.5283    0.0000 C.3     1  UNL1        0.1077
    253 C          40.1803   -3.6135    0.0000 C.3     1  UNL1        0.1077
    254 C          57.2491   -0.3320    0.0000 C.3     1  UNL1        0.1077
    255 C          51.0198   -2.2269    0.0000 C.3     1  UNL1        0.1077
    256 C          42.3494   -3.4906    0.0000 C.3     1  UNL1        0.1077
    257 C          48.9050   -2.7246    0.0000 C.3     1  UNL1        0.1077
    258 C          44.4967   -3.1598    0.0000 C.3     1  UNL1        0.1077
    259 C          46.7847   -2.9095    0.0000 C.3     1  UNL1        0.1077
    260 C          31.5474   -4.5208    0.0000 C.3     1  UNL1        0.1077
    261 C          59.3639    0.1657    0.0000 C.3     1  UNL1        0.1077
    262 C          29.4002   -4.8516    0.0000 C.3     1  UNL1        0.1077
    263 C          61.4211    0.8644    0.0000 C.3     1  UNL1        0.1077
    264 C          27.2310   -4.9745    0.0000 C.3     1  UNL1        0.1077
    265 C          63.5360    1.3620    0.0000 C.3     1  UNL1        0.1077
    266 C          25.0838   -5.3053    0.0000 C.3     1  UNL1        0.1077
    267 C          65.5932    2.0607    0.0000 C.3     1  UNL1        0.1077
    268 C          36.0220   -6.4113    0.0000 C.3     1  UNL1        0.1145
    269 C          53.4991    0.9265    0.0000 C.3     1  UNL1        0.1145
    270 C          37.7003   -1.6185    0.0000 C.3     1  UNL1        0.1145
    271 C          56.8506   -2.8887    0.0000 C.3     1  UNL1        0.1145
    272 C          33.3839   -2.0721    0.0000 C.3     1  UNL1        0.1145
    273 C          52.6785   -4.0850    0.0000 C.3     1  UNL1        0.1145
    274 C          40.3384   -5.9577    0.0000 C.3     1  UNL1        0.1145
    275 C          42.0167   -1.1648    0.0000 C.3     1  UNL1        0.1145
    276 C          49.3270   -0.2698    0.0000 C.3     1  UNL1        0.1145
    277 C          44.6548   -5.5040    0.0000 C.3     1  UNL1        0.1145
    278 C          48.5065   -5.2813    0.0000 C.3     1  UNL1        0.1145
    279 C          46.3331   -0.7111    0.0000 C.3     1  UNL1        0.1145
    280 C          57.6711    2.1228    0.0000 C.3     1  UNL1        0.1145
    281 C          31.7056   -6.8650    0.0000 C.3     1  UNL1        0.1145
    282 C          61.0226   -1.6924    0.0000 C.3     1  UNL1        0.1145
    283 C          29.0674   -2.5258    0.0000 C.3     1  UNL1        0.1145
    284 C          22.9146   -5.4282    0.0000 C.3     1  UNL1        0.1077
    285 C          61.8432    3.3191    0.0000 C.3     1  UNL1        0.1145
    286 C          27.3891   -7.3187    0.0000 C.3     1  UNL1        0.1145
    287 C          23.7565   -3.0840    0.0000 C.3     1  UNL1        0.1145
    288 C          65.1947   -0.4961    0.0000 C.3     1  UNL1        0.1145
    289 C          67.7080    2.5584    0.0000 C.3     1  UNL1        0.1077
    290 C          20.7673   -5.7590    0.0000 C.3     1  UNL1        0.1077
    291 C          22.0782   -7.8769    0.0000 C.3     1  UNL1        0.1145
    292 C          66.9765    4.7911    0.0000 C.3     1  UNL1        0.1145
    293 C          74.5350    3.1716    0.0000 C.3     1  UNL1        0.1394
    294 C          14.9158   -4.9695    0.0000 C.3     1  UNL1        0.1394
    295 C          69.7652    3.2570    0.0000 C.3     1  UNL1        0.1077
    296 C          19.4401   -3.5377    0.0000 C.3     1  UNL1        0.1145
    297 C          70.3280    0.9759    0.0000 C.3     1  UNL1        0.1145
    298 C          35.0274   -6.5159    0.0000 C.3     1  UNL1        0.1134
    299 C          54.4603    1.2021    0.0000 C.3     1  UNL1        0.1134
    300 C          36.7057   -1.7230    0.0000 C.3     1  UNL1        0.1134
    301 C          57.8119   -2.6131    0.0000 C.3     1  UNL1        0.1134
    302 C          32.3893   -2.1767    0.0000 C.3     1  UNL1        0.1134
    303 C          53.6398   -3.8094    0.0000 C.3     1  UNL1        0.1134
    304 C          39.3438   -6.0622    0.0000 C.3     1  UNL1        0.1134
    305 C          41.0221   -1.2693    0.0000 C.3     1  UNL1        0.1134
    306 C          50.2883    0.0058    0.0000 C.3     1  UNL1        0.1134
    307 C          43.6603   -5.6085    0.0000 C.3     1  UNL1        0.1134
    308 C          49.4678   -5.0057    0.0000 C.3     1  UNL1        0.1134
    309 C          45.3386   -0.8156    0.0000 C.3     1  UNL1        0.1134
    310 C          58.6324    2.3984    0.0000 C.3     1  UNL1        0.1134
    311 C          30.7110   -6.9695    0.0000 C.3     1  UNL1        0.1134
    312 C          61.9839   -1.4168    0.0000 C.3     1  UNL1        0.1134
    313 C          28.0729   -2.6303    0.0000 C.3     1  UNL1        0.1134
    314 C          62.8044    3.5947    0.0000 C.3     1  UNL1        0.1134
    315 C          26.3946   -7.4232    0.0000 C.3     1  UNL1        0.1134
    316 C          18.5982   -5.8819    0.0000 C.3     1  UNL1        0.1077
    317 C          24.7510   -2.9795    0.0000 C.3     1  UNL1        0.1134
    318 C          66.1560   -0.2204    0.0000 C.3     1  UNL1        0.1134
    319 C          23.0727   -7.7724    0.0000 C.3     1  UNL1        0.1134
    320 C          66.0152    4.5154    0.0000 C.3     1  UNL1        0.1134
    321 C          71.8801    3.7547    0.0000 C.3     1  UNL1        0.1077
    322 C          17.7618   -8.3306    0.0000 C.3     1  UNL1        0.1145
    323 C          71.1485    5.9874    0.0000 C.3     1  UNL1        0.1145
    324 C          77.7673    4.7099    0.0000 C.3     1  UNL1        0.2234
    325 C          11.4654   -5.9232    0.0000 C.3     1  UNL1        0.2234
    326 C          20.4346   -3.4332    0.0000 C.3     1  UNL1        0.1134
    327 C          69.3668    0.7002    0.0000 C.3     1  UNL1        0.1134
    328 C          16.4509   -6.2126    0.0000 C.3     1  UNL1        0.1077
    329 C          75.8798    6.3546    0.0000 C.3     1  UNL1        0.1394
    330 C          13.0387   -7.8707    0.0000 C.3     1  UNL1        0.1394
    331 C          18.7563   -8.2260    0.0000 C.3     1  UNL1        0.1134
    332 C          70.1873    5.7117    0.0000 C.3     1  UNL1        0.1134
    333 C          74.5001    2.1722    0.0000 C.3     1  UNL1        0.1145
    334 C          15.1237   -3.9914    0.0000 C.3     1  UNL1        0.1145
    335 C          73.9373    4.4533    0.0000 C.3     1  UNL1        0.1077
    336 C          73.5388    1.8966    0.0000 C.3     1  UNL1        0.1134
    337 C          16.1182   -3.8868    0.0000 C.3     1  UNL1        0.1134
    338 C          14.2818   -6.3355    0.0000 C.3     1  UNL1        0.1077
    339 C          75.3206    7.1837    0.0000 C.3     1  UNL1        0.1145
    340 C          13.4454   -8.7842    0.0000 C.3     1  UNL1        0.1145
    341 C          76.0521    4.9510    0.0000 C.3     1  UNL1        0.1077
    342 C          78.7070    4.3679    0.0000 C.3     1  UNL1        0.1394
    343 C          10.5994   -5.4232    0.0000 C.3     1  UNL1        0.1394
    344 C          74.3593    6.9080    0.0000 C.3     1  UNL1        0.1134
    345 C          14.4399   -8.6797    0.0000 C.3     1  UNL1        0.1134
    346 C          79.4362    6.7630    0.0000 C.3     1  UNL1        0.2234
    347 C           9.4654   -7.6552    0.0000 C.3     1  UNL1        0.2234
    348 C          12.1345   -6.6663    0.0000 C.3     1  UNL1        0.1077
    349 C          78.6721    3.3685    0.0000 C.3     1  UNL1        0.1145
    350 C          10.8073   -4.4450    0.0000 C.3     1  UNL1        0.1145
    351 C          78.1094    5.6496    0.0000 C.3     1  UNL1        0.1077
    352 C          77.7109    3.0929    0.0000 C.3     1  UNL1        0.1134
    353 C          11.8018   -4.3405    0.0000 C.3     1  UNL1        0.1134
    354 C          80.0518    7.5510    0.0000 C.3     1  UNL1        0.1394
    355 C           8.7222   -8.3244    0.0000 C.3     1  UNL1        0.1394
    356 C           9.9654   -6.7892    0.0000 C.3     1  UNL1        0.1077
    357 C          79.4926    8.3800    0.0000 C.3     1  UNL1        0.1145
    358 C          34.5274   -7.3819    0.0000 C.3     1  UNL1        0.0730
    359 C          54.8023    2.1418    0.0000 C.3     1  UNL1        0.0730
    360 C          58.5999   -3.2287    0.0000 C.3     1  UNL1        0.0730
    361 C          36.0366   -0.9798    0.0000 C.3     1  UNL1        0.0730
    362 C          31.7202   -1.4335    0.0000 C.3     1  UNL1        0.0730
    363 C          54.4278   -4.4250    0.0000 C.3     1  UNL1        0.0730
    364 C          38.8439   -6.9282    0.0000 C.3     1  UNL1        0.0730
    365 C          40.3530   -0.5262    0.0000 C.3     1  UNL1        0.0730
    366 C          50.6303    0.9455    0.0000 C.3     1  UNL1        0.0730
    367 C          43.1603   -6.4746    0.0000 C.3     1  UNL1        0.0730
    368 C          50.2558   -5.6214    0.0000 C.3     1  UNL1        0.0730
    369 C          58.9744    3.3381    0.0000 C.3     1  UNL1        0.0730
    370 C          44.6694   -0.0725    0.0000 C.3     1  UNL1        0.0730
    371 C          30.2110   -7.8356    0.0000 C.3     1  UNL1        0.0730
    372 C          62.7719   -2.0324    0.0000 C.3     1  UNL1        0.0730
    373 C          27.4038   -1.8872    0.0000 C.3     1  UNL1        0.0730
    374 C           9.1290   -9.2379    0.0000 C.3     1  UNL1        0.1145
    375 C          63.1465    4.5344    0.0000 C.3     1  UNL1        0.0730
    376 C          25.8946   -8.2892    0.0000 C.3     1  UNL1        0.0730
    377 C          25.2510   -2.1135    0.0000 C.3     1  UNL1        0.0730
    378 C          66.9440   -0.8361    0.0000 C.3     1  UNL1        0.0730
    379 C          23.7419   -8.5155    0.0000 C.3     1  UNL1        0.0730
    380 C          65.2272    5.1311    0.0000 C.3     1  UNL1        0.0730
    381 C          78.5314    8.1044    0.0000 C.3     1  UNL1        0.1134
    382 C          20.9346   -2.5671    0.0000 C.3     1  UNL1        0.0730
    383 C          69.0247   -0.2394    0.0000 C.3     1  UNL1        0.0730
    384 C          10.1235   -9.1334    0.0000 C.3     1  UNL1        0.1134
    385 C          81.9394    5.9062    0.0000 C.3     1  UNL1        0.2234
    386 C          80.2242    6.1473    0.0000 C.3     1  UNL1        0.1077
    387 C           6.8671   -6.8110    0.0000 C.3     1  UNL1        0.2256
    388 C          19.4255   -8.9692    0.0000 C.3     1  UNL1        0.0730
    389 C          69.3993    6.3274    0.0000 C.3     1  UNL1        0.0730
    390 C          73.1968    0.9569    0.0000 C.3     1  UNL1        0.0730
    391 C          16.6182   -3.0208    0.0000 C.3     1  UNL1        0.0730
    392 C          82.8791    5.5642    0.0000 C.3     1  UNL1        0.1394
    393 C           7.8181   -7.1200    0.0000 C.3     1  UNL1        0.1078
    394 C           7.1761   -5.8599    0.0000 C.3     1  UNL1        0.1395
    395 C          73.5713    7.5237    0.0000 C.3     1  UNL1        0.0730
    396 C          15.1091   -9.4228    0.0000 C.3     1  UNL1        0.0730
    397 C          82.8442    4.5648    0.0000 C.3     1  UNL1        0.1145
    398 C           6.3671   -5.2721    0.0000 C.3     1  UNL1        0.1145
    399 C          77.3688    2.1532    0.0000 C.3     1  UNL1        0.0730
    400 C          12.3018   -3.4745    0.0000 C.3     1  UNL1        0.0730
    401 C          81.8829    4.2892    0.0000 C.3     1  UNL1        0.1134
    402 C           5.5580   -5.8599    0.0000 C.3     1  UNL1        0.1134
    403 C          82.2814    6.8459    0.0000 C.3     1  UNL1        0.1077
    404 C          77.7434    8.7200    0.0000 C.3     1  UNL1        0.0730
    405 C          10.7926   -9.8765    0.0000 C.3     1  UNL1        0.0730
    406 C          83.6082    7.9593    0.0000 C.3     1  UNL1        0.2231
    407 C           6.0010   -8.3110    0.0000 C.3     1  UNL1        0.1912
    408 C          84.2239    8.7473    0.0000 C.3     1  UNL1        0.1394
    409 C          81.5409    3.3495    0.0000 C.3     1  UNL1        0.0730
    410 C           4.6070   -5.5509    0.0000 C.3     1  UNL1        0.0730
    411 C           6.0010   -9.3110    0.0000 C.3     1  UNL1        0.1342
    412 C          83.6647    9.5763    0.0000 C.3     1  UNL1        0.1145
    413 C          82.7034    9.3007    0.0000 C.3     1  UNL1        0.1134
    414 C           5.1350   -9.8110    0.0000 C.3     1  UNL1        0.1141
    415 C           4.2690   -9.3110    0.0000 C.3     1  UNL1        0.1119
    416 C           4.2690   -8.3110    0.0000 C.3     1  UNL1        0.1130
    417 C          84.3962    7.3436    0.0000 C.3     1  UNL1        0.1008
    418 C          81.9154    9.9164    0.0000 C.3     1  UNL1        0.0730
    419 C           3.4030   -7.8110    0.0000 C.3     1  UNL1        0.0730
    420 H          36.7117   -5.8234    0.0000 H       1  UNL1        0.0675
    421 H          52.9219    0.2277    0.0000 H       1  UNL1        0.0675
    422 H          38.2675   -3.1309    0.0000 H       1  UNL1        0.0675
    423 H          55.9908   -2.6019    0.0000 H       1  UNL1        0.0675
    424 H          33.9511   -3.5846    0.0000 H       1  UNL1        0.0675
    425 H          51.8573   -2.6941    0.0000 H       1  UNL1        0.0675
    426 H          41.0281   -5.3697    0.0000 H       1  UNL1        0.0675
    427 H          42.8136   -1.5965    0.0000 H       1  UNL1        0.0675
    428 H          49.3677   -1.8846    0.0000 H       1  UNL1        0.0675
    429 H          45.3445   -4.9160    0.0000 H       1  UNL1        0.0675
    430 H          47.6006   -4.9663    0.0000 H       1  UNL1        0.0675
    431 H          47.0498   -2.1616    0.0000 H       1  UNL1        0.0675
    432 H          57.0940    1.4240    0.0000 H       1  UNL1        0.0675
    433 H          32.3953   -6.2770    0.0000 H       1  UNL1        0.0675
    434 H          60.2014   -0.3014    0.0000 H       1  UNL1        0.0675
    435 H          29.8644   -2.9575    0.0000 H       1  UNL1        0.0675
    436 H          61.2660    2.6203    0.0000 H       1  UNL1        0.0675
    437 H          27.6295   -5.7214    0.0000 H       1  UNL1        0.0675
    438 H          23.5162   -4.6813    0.0000 H       1  UNL1        0.0675
    439 H          64.3735    0.8949    0.0000 H       1  UNL1        0.0675
    440 H          21.2813   -7.4452    0.0000 H       1  UNL1        0.0675
    441 H          67.8363    4.5043    0.0000 H       1  UNL1        0.0675
    442 H          18.7504   -4.1256    0.0000 H       1  UNL1        0.0675
    443 H          70.2874    2.5906    0.0000 H       1  UNL1        0.0675
    444 H          16.9649   -7.8988    0.0000 H       1  UNL1        0.0675
    445 H          71.9698    4.5964    0.0000 H       1  UNL1        0.0675
    446 H          35.9715   -3.4566    0.0000 H       1  UNL1        0.0616
    447 H          35.2812   -3.8551    0.0000 H       1  UNL1        0.0616
    448 H          54.7311   -1.4455    0.0000 H       1  UNL1        0.0616
    449 H          55.5204   -1.5564    0.0000 H       1  UNL1        0.0616
    450 H          37.5072   -4.2728    0.0000 H       1  UNL1        0.0616
    451 H          38.2652   -4.5191    0.0000 H       1  UNL1        0.0616
    452 H          33.1908   -4.7265    0.0000 H       1  UNL1        0.0616
    453 H          33.9488   -4.9728    0.0000 H       1  UNL1        0.0616
    454 H          53.0770   -0.9083    0.0000 H       1  UNL1        0.0616
    455 H          52.4664   -1.4206    0.0000 H       1  UNL1        0.0616
    456 H          40.2879   -3.0029    0.0000 H       1  UNL1        0.0616
    457 H          39.5976   -3.4014    0.0000 H       1  UNL1        0.0616
    458 H          57.2491    0.2880    0.0000 H       1  UNL1        0.0616
    459 H          56.6385   -0.2243    0.0000 H       1  UNL1        0.0616
    460 H          50.5591   -2.6418    0.0000 H       1  UNL1        0.0616
    461 H          51.3484   -2.7527    0.0000 H       1  UNL1        0.0616
    462 H          41.8236   -3.8192    0.0000 H       1  UNL1        0.0616
    463 H          42.5816   -4.0655    0.0000 H       1  UNL1        0.0616
    464 H          48.9050   -2.1046    0.0000 H       1  UNL1        0.0616
    465 H          48.2944   -2.6169    0.0000 H       1  UNL1        0.0616
    466 H          44.6043   -2.5492    0.0000 H       1  UNL1        0.0616
    467 H          43.9141   -2.9478    0.0000 H       1  UNL1        0.0616
    468 H          46.2589   -3.2380    0.0000 H       1  UNL1        0.0616
    469 H          47.0269   -2.3387    0.0000 H       1  UNL1        0.0616
    470 H          31.6551   -3.9103    0.0000 H       1  UNL1        0.0616
    471 H          30.9648   -4.3088    0.0000 H       1  UNL1        0.0616
    472 H          58.9032   -0.2491    0.0000 H       1  UNL1        0.0616
    473 H          59.6925   -0.3601    0.0000 H       1  UNL1        0.0616
    474 H          28.8744   -5.1802    0.0000 H       1  UNL1        0.0616
    475 H          29.6324   -5.4265    0.0000 H       1  UNL1        0.0616
    476 H          61.4211    1.4844    0.0000 H       1  UNL1        0.0616
    477 H          60.8106    0.9720    0.0000 H       1  UNL1        0.0616
    478 H          27.3387   -4.3639    0.0000 H       1  UNL1        0.0616
    479 H          26.6484   -4.7625    0.0000 H       1  UNL1        0.0616
    480 H          63.0752    0.9472    0.0000 H       1  UNL1        0.0616
    481 H          63.8645    0.8362    0.0000 H       1  UNL1        0.0616
    482 H          24.5580   -5.6339    0.0000 H       1  UNL1        0.0616
    483 H          25.3160   -5.8802    0.0000 H       1  UNL1        0.0616
    484 H          65.5932    2.6807    0.0000 H       1  UNL1        0.0616
    485 H          64.9826    2.1683    0.0000 H       1  UNL1        0.0616
    486 H          36.6208   -6.2509    0.0000 H       1  UNL1        0.0648
    487 H          52.9372    0.6644    0.0000 H       1  UNL1        0.0648
    488 H          57.2734   -3.3422    0.0000 H       1  UNL1        0.0648
    489 H          38.3194   -1.6509    0.0000 H       1  UNL1        0.0648
    490 H          34.0030   -2.1046    0.0000 H       1  UNL1        0.0648
    491 H          53.1014   -4.5385    0.0000 H       1  UNL1        0.0648
    492 H          40.1162   -6.5365    0.0000 H       1  UNL1        0.0648
    493 H          41.6790   -0.6448    0.0000 H       1  UNL1        0.0648
    494 H          48.7651   -0.5319    0.0000 H       1  UNL1        0.0648
    495 H          44.4326   -6.0828    0.0000 H       1  UNL1        0.0648
    496 H          47.8911   -5.3569    0.0000 H       1  UNL1        0.0648
    497 H          46.9522   -0.7436    0.0000 H       1  UNL1        0.0648
    498 H          57.1092    1.8608    0.0000 H       1  UNL1        0.0648
    499 H          31.4834   -7.4438    0.0000 H       1  UNL1        0.0648
    500 H          60.4073   -1.7680    0.0000 H       1  UNL1        0.0648
    501 H          28.7298   -2.0058    0.0000 H       1  UNL1        0.0648
    502 H          23.0223   -4.8176    0.0000 H       1  UNL1        0.0616
    503 H          22.3320   -5.2161    0.0000 H       1  UNL1        0.0616
    504 H          61.9615    3.9277    0.0000 H       1  UNL1        0.0648
    505 H          27.9880   -7.1582    0.0000 H       1  UNL1        0.0648
    506 H          23.1576   -3.2445    0.0000 H       1  UNL1        0.0648
    507 H          64.5793   -0.5716    0.0000 H       1  UNL1        0.0648
    508 H          67.2473    2.1435    0.0000 H       1  UNL1        0.0616
    509 H          68.0366    2.0326    0.0000 H       1  UNL1        0.0616
    510 H          20.2416   -6.0875    0.0000 H       1  UNL1        0.0616
    511 H          20.9996   -6.3338    0.0000 H       1  UNL1        0.0616
    512 H          22.4159   -8.3969    0.0000 H       1  UNL1        0.0648
    513 H          66.5536    5.2445    0.0000 H       1  UNL1        0.0648
    514 H          75.0772    2.8710    0.0000 H       1  UNL1        0.0675
    515 H          14.4340   -4.5793    0.0000 H       1  UNL1        0.0675
    516 H          69.7652    3.8770    0.0000 H       1  UNL1        0.0616
    517 H          69.1547    3.3646    0.0000 H       1  UNL1        0.0616
    518 H          19.6623   -2.9589    0.0000 H       1  UNL1        0.0648
    519 H          70.8899    1.2379    0.0000 H       1  UNL1        0.0648
    520 H          34.4083   -6.4834    0.0000 H       1  UNL1        0.0647
    521 H          55.0757    1.2777    0.0000 H       1  UNL1        0.0647
    522 H          58.3738   -2.3510    0.0000 H       1  UNL1        0.0647
    523 H          36.1069   -1.8835    0.0000 H       1  UNL1        0.0647
    524 H          31.7905   -2.3371    0.0000 H       1  UNL1        0.0647
    525 H          54.2017   -3.5474    0.0000 H       1  UNL1        0.0647
    526 H          38.7247   -6.0298    0.0000 H       1  UNL1        0.0647
    527 H          40.4233   -1.4298    0.0000 H       1  UNL1        0.0647
    528 H          50.9037    0.0813    0.0000 H       1  UNL1        0.0647
    529 H          43.0411   -5.5761    0.0000 H       1  UNL1        0.0647
    530 H          50.0297   -4.7437    0.0000 H       1  UNL1        0.0647
    531 H          44.7397   -0.9761    0.0000 H       1  UNL1        0.0647
    532 H          59.2478    2.4740    0.0000 H       1  UNL1        0.0647
    533 H          30.0919   -6.9371    0.0000 H       1  UNL1        0.0647
    534 H          62.5458   -1.1547    0.0000 H       1  UNL1        0.0647
    535 H          27.4740   -2.7908    0.0000 H       1  UNL1        0.0647
    536 H          63.4198    3.6703    0.0000 H       1  UNL1        0.0647
    537 H          25.7755   -7.3908    0.0000 H       1  UNL1        0.0647
    538 H          18.7059   -5.2713    0.0000 H       1  UNL1        0.0616
    539 H          18.0156   -5.6698    0.0000 H       1  UNL1        0.0616
    540 H          25.3702   -3.0119    0.0000 H       1  UNL1        0.0647
    541 H          66.7179    0.0416    0.0000 H       1  UNL1        0.0647
    542 H          23.6716   -7.6119    0.0000 H       1  UNL1        0.0647
    543 H          65.4533    4.2534    0.0000 H       1  UNL1        0.0647
    544 H          71.4193    3.3398    0.0000 H       1  UNL1        0.0616
    545 H          72.2086    3.2289    0.0000 H       1  UNL1        0.0616
    546 H          18.0995   -8.8505    0.0000 H       1  UNL1        0.0648
    547 H          71.7639    6.0629    0.0000 H       1  UNL1        0.0648
    548 H          21.0538   -3.4656    0.0000 H       1  UNL1        0.0647
    549 H          68.7514    0.6247    0.0000 H       1  UNL1        0.0647
    550 H          15.9251   -6.5412    0.0000 H       1  UNL1        0.0616
    551 H          16.6832   -6.7875    0.0000 H       1  UNL1        0.0616
    552 H          76.1804    6.8969    0.0000 H       1  UNL1        0.0675
    553 H          12.6485   -8.3525    0.0000 H       1  UNL1        0.0675
    554 H          19.3552   -8.0656    0.0000 H       1  UNL1        0.0647
    555 H          69.6254    5.4497    0.0000 H       1  UNL1        0.0647
    556 H          74.3818    1.5636    0.0000 H       1  UNL1        0.0648
    557 H          14.5248   -4.1518    0.0000 H       1  UNL1        0.0648
    558 H          73.9373    5.0733    0.0000 H       1  UNL1        0.0616
    559 H          73.3267    4.5610    0.0000 H       1  UNL1        0.0616
    560 H          72.9234    1.8210    0.0000 H       1  UNL1        0.0647
    561 H          16.7374   -3.9193    0.0000 H       1  UNL1        0.0647
    562 H          14.3895   -5.7250    0.0000 H       1  UNL1        0.0616
    563 H          13.6992   -6.1235    0.0000 H       1  UNL1        0.0616
    564 H          75.9360    7.2592    0.0000 H       1  UNL1        0.0648
    565 H          12.8262   -8.7518    0.0000 H       1  UNL1        0.0648
    566 H          75.5914    4.5361    0.0000 H       1  UNL1        0.0616
    567 H          76.3807    4.4252    0.0000 H       1  UNL1        0.0616
    568 H          78.6315    4.9833    0.0000 H       1  UNL1        0.0675
    569 H          10.5669   -6.0423    0.0000 H       1  UNL1        0.0675
    570 H          73.7974    6.6460    0.0000 H       1  UNL1        0.0647
    571 H          15.0388   -8.5192    0.0000 H       1  UNL1        0.0647
    572 H          11.6087   -6.9949    0.0000 H       1  UNL1        0.0616
    573 H          12.3668   -7.2412    0.0000 H       1  UNL1        0.0616
    574 H          79.2340    3.6305    0.0000 H       1  UNL1        0.0648
    575 H          10.2084   -4.6055    0.0000 H       1  UNL1        0.0648
    576 H          78.1094    6.2696    0.0000 H       1  UNL1        0.0616
    577 H          77.4988    5.7573    0.0000 H       1  UNL1        0.0616
    578 H          77.0955    3.0173    0.0000 H       1  UNL1        0.0647
    579 H          12.4210   -4.3730    0.0000 H       1  UNL1        0.0647
    580 H          80.3524    8.0932    0.0000 H       1  UNL1        0.0675
    581 H           8.5618   -7.7255    0.0000 H       1  UNL1        0.0675
    582 H          10.0731   -6.1786    0.0000 H       1  UNL1        0.0616
    583 H           9.3828   -6.5772    0.0000 H       1  UNL1        0.0616
    584 H          79.0698    8.8334    0.0000 H       1  UNL1        0.0648
    585 H          34.0525   -6.9834    0.0000 H       1  UNL1        0.0584
    586 H          34.0525   -7.7804    0.0000 H       1  UNL1        0.0584
    587 H          54.8023    2.7618    0.0000 H       1  UNL1        0.0584
    588 H          54.1918    2.2495    0.0000 H       1  UNL1        0.0584
    589 H          58.1391   -3.6436    0.0000 H       1  UNL1        0.0584
    590 H          58.9284   -3.7545    0.0000 H       1  UNL1        0.0584
    591 H          35.4892   -0.6888    0.0000 H       1  UNL1        0.0584
    592 H          35.6549   -1.4684    0.0000 H       1  UNL1        0.0584
    593 H          31.1728   -1.1424    0.0000 H       1  UNL1        0.0584
    594 H          31.3385   -1.9221    0.0000 H       1  UNL1        0.0584
    595 H          53.9671   -4.8399    0.0000 H       1  UNL1        0.0584
    596 H          54.7564   -4.9508    0.0000 H       1  UNL1        0.0584
    597 H          38.3689   -6.5297    0.0000 H       1  UNL1        0.0584
    598 H          38.3689   -7.3268    0.0000 H       1  UNL1        0.0584
    599 H          39.8056   -0.2351    0.0000 H       1  UNL1        0.0584
    600 H          39.9713   -1.0147    0.0000 H       1  UNL1        0.0584
    601 H          50.6303    1.5655    0.0000 H       1  UNL1        0.0584
    602 H          50.0197    1.0531    0.0000 H       1  UNL1        0.0584
    603 H          42.6853   -6.0760    0.0000 H       1  UNL1        0.0584
    604 H          42.6853   -6.8731    0.0000 H       1  UNL1        0.0584
    605 H          49.7950   -6.0362    0.0000 H       1  UNL1        0.0584
    606 H          50.5843   -6.1472    0.0000 H       1  UNL1        0.0584
    607 H          58.9744    3.9581    0.0000 H       1  UNL1        0.0584
    608 H          58.3638    3.4458    0.0000 H       1  UNL1        0.0584
    609 H          44.1220    0.2186    0.0000 H       1  UNL1        0.0584
    610 H          44.2877   -0.5611    0.0000 H       1  UNL1        0.0584
    611 H          29.7361   -7.4370    0.0000 H       1  UNL1        0.0584
    612 H          29.7361   -8.2341    0.0000 H       1  UNL1        0.0584
    613 H          62.3112   -2.4473    0.0000 H       1  UNL1        0.0584
    614 H          63.1005   -2.5582    0.0000 H       1  UNL1        0.0584
    615 H          26.8564   -1.5961    0.0000 H       1  UNL1        0.0584
    616 H          27.0221   -2.3758    0.0000 H       1  UNL1        0.0584
    617 H           9.4667   -9.7579    0.0000 H       1  UNL1        0.0648
    618 H          63.1465    5.1544    0.0000 H       1  UNL1        0.0584
    619 H          62.5359    4.6421    0.0000 H       1  UNL1        0.0584
    620 H          25.4197   -7.8907    0.0000 H       1  UNL1        0.0584
    621 H          25.4197   -8.6878    0.0000 H       1  UNL1        0.0584
    622 H          25.3587   -1.5029    0.0000 H       1  UNL1        0.0584
    623 H          24.6684   -1.9014    0.0000 H       1  UNL1        0.0584
    624 H          66.4832   -1.2510    0.0000 H       1  UNL1        0.0584
    625 H          67.2725   -1.3619    0.0000 H       1  UNL1        0.0584
    626 H          23.2161   -8.8440    0.0000 H       1  UNL1        0.0584
    627 H          23.9741   -9.0904    0.0000 H       1  UNL1        0.0584
    628 H          64.6376    5.3227    0.0000 H       1  UNL1        0.0584
    629 H          64.9361    4.5836    0.0000 H       1  UNL1        0.0584
    630 H          77.9695    7.8424    0.0000 H       1  UNL1        0.0647
    631 H          21.0423   -1.9566    0.0000 H       1  UNL1        0.0584
    632 H          20.3520   -2.3551    0.0000 H       1  UNL1        0.0584
    633 H          68.4878    0.0706    0.0000 H       1  UNL1        0.0584
    634 H          68.6262   -0.7144    0.0000 H       1  UNL1        0.0584
    635 H          10.7224   -8.9729    0.0000 H       1  UNL1        0.0647
    636 H          79.7634    5.7324    0.0000 H       1  UNL1        0.0616
    637 H          80.5527    5.6215    0.0000 H       1  UNL1        0.0616
    638 H          18.8997   -9.2977    0.0000 H       1  UNL1        0.0584
    639 H          19.6577   -9.5440    0.0000 H       1  UNL1        0.0584
    640 H          68.8096    6.5190    0.0000 H       1  UNL1        0.0584
    641 H          69.1082    5.7800    0.0000 H       1  UNL1        0.0584
    642 H          72.6599    1.2669    0.0000 H       1  UNL1        0.0584
    643 H          72.7983    0.4819    0.0000 H       1  UNL1        0.0584
    644 H          16.7259   -2.4102    0.0000 H       1  UNL1        0.0584
    645 H          16.0356   -2.8088    0.0000 H       1  UNL1        0.0584
    646 H          37.6450   -5.3909    0.0000 H       1  UNL1        0.2101
    647 H          52.0779   -0.3603    0.0000 H       1  UNL1        0.2101
    648 H          39.5000   -2.2792    0.0000 H       1  UNL1        0.2101
    649 H          54.9635   -2.5506    0.0000 H       1  UNL1        0.2101
    650 H          35.1836   -2.7328    0.0000 H       1  UNL1        0.2101
    651 H          50.7914   -3.7469    0.0000 H       1  UNL1        0.2101
    652 H          41.9614   -4.9372    0.0000 H       1  UNL1        0.2101
    653 H          43.8164   -1.8255    0.0000 H       1  UNL1        0.2101
    654 H          48.1914   -2.3856    0.0000 H       1  UNL1        0.2101
    655 H          46.2778   -4.4835    0.0000 H       1  UNL1        0.2101
    656 H          47.0980   -3.6380    0.0000 H       1  UNL1        0.2101
    657 H          47.8198   -0.7092    0.0000 H       1  UNL1        0.2101
    658 H          56.2499    0.8360    0.0000 H       1  UNL1        0.2101
    659 H          33.3286   -5.8446    0.0000 H       1  UNL1        0.2101
    660 H          59.1355   -1.3542    0.0000 H       1  UNL1        0.2101
    661 H          30.8672   -3.1865    0.0000 H       1  UNL1        0.2101
    662 H          60.4220    2.0323    0.0000 H       1  UNL1        0.2101
    663 H          29.0122   -6.2982    0.0000 H       1  UNL1        0.2101
    664 H          22.1335   -4.1045    0.0000 H       1  UNL1        0.2101
    665 H          63.3076   -0.1579    0.0000 H       1  UNL1        0.2101
    666 H          20.2785   -7.2162    0.0000 H       1  UNL1        0.2101
    667 H          82.8035    6.1796    0.0000 H       1  UNL1        0.0675
    668 H          68.8636    4.4529    0.0000 H       1  UNL1        0.2101
    669 H           7.4364   -7.6086    0.0000 H       1  UNL1        0.0616
    670 H           7.8506   -6.5008    0.0000 H       1  UNL1        0.0616
    671 H           7.7130   -6.1699    0.0000 H       1  UNL1        0.0675
    672 H          72.9817    7.7153    0.0000 H       1  UNL1        0.0584
    673 H          73.2802    6.9763    0.0000 H       1  UNL1        0.0584
    674 H          14.5833   -9.7514    0.0000 H       1  UNL1        0.0584
    675 H          15.3413   -9.9977    0.0000 H       1  UNL1        0.0584
    676 H          17.8171   -4.5581    0.0000 H       1  UNL1        0.2101
    677 H          71.7492    2.2627    0.0000 H       1  UNL1        0.2101
    678 H          15.9621   -7.6698    0.0000 H       1  UNL1        0.2101
    679 H          73.0357    5.6492    0.0000 H       1  UNL1        0.2101
    680 H          37.2975   -7.0256    0.0000 H       1  UNL1        0.2100
    681 H          52.7973    2.1561    0.0000 H       1  UNL1        0.2100
    682 H          56.9071   -4.3034    0.0000 H       1  UNL1        0.2100
    683 H          38.8203   -0.7524    0.0000 H       1  UNL1        0.2100
    684 H          34.5038   -1.2061    0.0000 H       1  UNL1        0.2100
    685 H          52.7351   -5.4997    0.0000 H       1  UNL1        0.2100
    686 H          41.6140   -6.5719    0.0000 H       1  UNL1        0.2100
    687 H          43.1367   -0.2988    0.0000 H       1  UNL1        0.2100
    688 H          48.6253    0.9598    0.0000 H       1  UNL1        0.2100
    689 H          45.9304   -6.1182    0.0000 H       1  UNL1        0.2100
    690 H          48.5630   -6.6960    0.0000 H       1  UNL1        0.2100
    691 H          56.9694    3.3524    0.0000 H       1  UNL1        0.2100
    692 H          46.5231    0.6918    0.0000 H       1  UNL1        0.2100
    693 H          32.9811   -7.4792    0.0000 H       1  UNL1        0.2100
    694 H          61.0792   -3.1070    0.0000 H       1  UNL1        0.2100
    695 H          30.1874   -1.6598    0.0000 H       1  UNL1        0.2100
    696 H          61.1414    4.5487    0.0000 H       1  UNL1        0.2100
    697 H          28.6647   -7.9329    0.0000 H       1  UNL1        0.2100
    698 H          23.2790   -1.7512    0.0000 H       1  UNL1        0.2100
    699 H          65.2512   -1.9107    0.0000 H       1  UNL1        0.2100
    700 H          83.4061    4.8269    0.0000 H       1  UNL1        0.0648
    701 H          21.8882   -9.2798    0.0000 H       1  UNL1        0.2100
    702 H          67.9291    5.8384    0.0000 H       1  UNL1        0.2100
    703 H          75.9213    3.4590    0.0000 H       1  UNL1        0.2101
    704 H          13.5006   -5.0118    0.0000 H       1  UNL1        0.2101
    705 H           6.9195   -4.9907    0.0000 H       1  UNL1        0.0648
    706 H          18.9626   -2.2049    0.0000 H       1  UNL1        0.2100
    707 H          71.6909    0.5925    0.0000 H       1  UNL1        0.2100
    708 H          76.8319    2.4632    0.0000 H       1  UNL1        0.0584
    709 H          76.9703    1.6782    0.0000 H       1  UNL1        0.0584
    710 H          12.4095   -2.8639    0.0000 H       1  UNL1        0.0584
    711 H          11.7192   -3.2624    0.0000 H       1  UNL1        0.0584
    712 H          81.2675    4.2136    0.0000 H       1  UNL1        0.0647
    713 H           5.1196   -6.2983    0.0000 H       1  UNL1        0.0647
    714 H          17.5718   -9.7335    0.0000 H       1  UNL1        0.2100
    715 H          72.1011    7.0347    0.0000 H       1  UNL1        0.2100
    716 H          77.2077    6.8456    0.0000 H       1  UNL1        0.2101
    717 H          11.6457   -8.1235    0.0000 H       1  UNL1        0.2101
    718 H          82.2814    7.4659    0.0000 H       1  UNL1        0.0616
    719 H          81.6708    6.9536    0.0000 H       1  UNL1        0.0616
    720 H          75.8629    1.7888    0.0000 H       1  UNL1        0.2100
    721 H          14.6462   -2.6586    0.0000 H       1  UNL1        0.2100
    722 H          76.2732    8.2310    0.0000 H       1  UNL1        0.2100
    723 H          13.2554  -10.1872    0.0000 H       1  UNL1        0.2100
    724 H          80.0933    4.6553    0.0000 H       1  UNL1        0.2101
    725 H           9.1842   -5.4655    0.0000 H       1  UNL1        0.2101
    726 H          77.1537    8.9116    0.0000 H       1  UNL1        0.0584
    727 H          77.4523    8.1726    0.0000 H       1  UNL1        0.0584
    728 H          11.3401  -10.1676    0.0000 H       1  UNL1        0.0584
    729 H          11.1744   -9.3880    0.0000 H       1  UNL1        0.0584
    730 H          80.0350    2.9851    0.0000 H       1  UNL1        0.2100
    731 H          10.3297   -3.1122    0.0000 H       1  UNL1        0.2100
    732 H           6.0010   -7.6910    0.0000 H       1  UNL1        0.0939
    733 H          81.3798    8.0419    0.0000 H       1  UNL1        0.2101
    734 H           7.3292   -8.5772    0.0000 H       1  UNL1        0.2101
    735 H          84.4859    8.1854    0.0000 H       1  UNL1        0.0675
    736 H          80.4453    9.4274    0.0000 H       1  UNL1        0.2100
    737 H          34.7174   -8.7849    0.0000 H       1  UNL1        0.2095
    738 H          55.9992    2.8981    0.0000 H       1  UNL1        0.2095
    739 H          60.0156   -3.2358    0.0000 H       1  UNL1        0.2095
    740 H          35.9308    0.4320    0.0000 H       1  UNL1        0.2095
    741 H          31.6144   -0.0217    0.0000 H       1  UNL1        0.2095
    742 H          55.8436   -4.4322    0.0000 H       1  UNL1        0.2095
    743 H          39.0339   -8.3312    0.0000 H       1  UNL1        0.2095
    744 H          40.2472    0.8856    0.0000 H       1  UNL1        0.2095
    745 H          51.8272    1.7017    0.0000 H       1  UNL1        0.2095
    746 H          43.3503   -7.8775    0.0000 H       1  UNL1        0.2095
    747 H          60.1713    4.0944    0.0000 H       1  UNL1        0.2095
    748 H          51.6715   -5.6285    0.0000 H       1  UNL1        0.2095
    749 H          44.5636    1.3393    0.0000 H       1  UNL1        0.2095
    750 H          30.4010   -9.2385    0.0000 H       1  UNL1        0.2095
    751 H           8.9390  -10.6409    0.0000 H       1  UNL1        0.2100
    752 H          64.1877   -2.0395    0.0000 H       1  UNL1        0.2095
    753 H          27.2979   -0.4754    0.0000 H       1  UNL1        0.2095
    754 H          64.3433    5.2907    0.0000 H       1  UNL1        0.2095
    755 H          26.0846   -9.6922    0.0000 H       1  UNL1        0.2095
    756 H          26.5610   -1.5765    0.0000 H       1  UNL1        0.2095
    757 H          68.3597   -0.8432    0.0000 H       1  UNL1        0.2095
    758 H          81.0040    3.6595    0.0000 H       1  UNL1        0.0584
    759 H          81.1424    2.8746    0.0000 H       1  UNL1        0.0584
    760 H          25.1349   -8.7683    0.0000 H       1  UNL1        0.2095
    761 H          64.8778    6.5031    0.0000 H       1  UNL1        0.2095
    762 H           3.9874   -5.5725    0.0000 H       1  UNL1        0.0584
    763 H           4.5207   -6.1649    0.0000 H       1  UNL1        0.0584
    764 H           6.0010   -9.9310    0.0000 H       1  UNL1        0.0671
    765 H          22.2446   -2.0302    0.0000 H       1  UNL1        0.2095
    766 H          69.4555   -1.5881    0.0000 H       1  UNL1        0.2095
    767 H          84.2801    9.6519    0.0000 H       1  UNL1        0.0648
    768 H          20.8185   -9.2220    0.0000 H       1  UNL1        0.2095
    769 H          69.0499    7.6994    0.0000 H       1  UNL1        0.2095
    770 H          82.1415    9.0387    0.0000 H       1  UNL1        0.0647
    771 H          73.6275   -0.3918    0.0000 H       1  UNL1        0.2095
    772 H          17.9282   -2.4839    0.0000 H       1  UNL1        0.2095
    773 H           4.5981  -10.1210    0.0000 H       1  UNL1        0.0648
    774 H          84.2654    5.8516    0.0000 H       1  UNL1        0.2101
    775 H           8.4517   -5.2457    0.0000 H       1  UNL1        0.2101
    776 H          73.2219    8.8957    0.0000 H       1  UNL1        0.2095
    777 H          16.5021   -9.6757    0.0000 H       1  UNL1        0.2095
    778 H           3.7320   -9.0010    0.0000 H       1  UNL1        0.0647
    779 H           4.2690   -7.6910    0.0000 H       1  UNL1        0.0647
    780 H          83.9355    6.9288    0.0000 H       1  UNL1        0.0612
    781 H          84.7248    6.8178    0.0000 H       1  UNL1        0.0612
    782 H          84.2070    4.1814    0.0000 H       1  UNL1        0.2100
    783 H           5.8301   -3.9621    0.0000 H       1  UNL1        0.2100
    784 H          77.7996    0.8045    0.0000 H       1  UNL1        0.2095
    785 H          13.6118   -2.9375    0.0000 H       1  UNL1        0.2095
    786 H          77.3940   10.0920    0.0000 H       1  UNL1        0.2095
    787 H          10.8985  -11.2883    0.0000 H       1  UNL1        0.2095
    788 H          81.3258   10.1079    0.0000 H       1  UNL1        0.0584
    789 H          81.6244    9.3689    0.0000 H       1  UNL1        0.0584
    790 H           3.8015   -7.3360    0.0000 H       1  UNL1        0.0584
    791 H           3.0044   -7.3360    0.0000 H       1  UNL1        0.0584
    792 H          85.5518    9.2382    0.0000 H       1  UNL1        0.2101
    793 H          81.9716    2.0008    0.0000 H       1  UNL1        0.2095
    794 H           3.8094   -4.3812    0.0000 H       1  UNL1        0.2095
    795 H           6.8671  -10.4310    0.0000 H       1  UNL1        0.2101
    796 H          84.6173   10.6237    0.0000 H       1  UNL1        0.2100
    797 H           4.5981  -11.1210    0.0000 H       1  UNL1        0.2100
    798 H           3.4030  -10.4310    0.0000 H       1  UNL1        0.2100
    799 H          85.8120    7.3365    0.0000 H       1  UNL1        0.2096
    800 H          81.5660   11.2883    0.0000 H       1  UNL1        0.2095
    801 H           2.0000   -8.0010    0.0000 H       1  UNL1        0.2095
@<TRIPOS>BOND
     1   194     1    1
     2     1   248    1
     3   192     2    1
     4     2   251    1
     5   195     3    1
     6     3   249    1
     7   193     4    1
     8     4   252    1
     9   197     5    1
    10     5   250    1
    11   196     6    1
    12     6   255    1
    13   199     7    1
    14     7   253    1
    15   198     8    1
    16     8   260    1
    17   200     9    1
    18     9   257    1
    19   201    10    1
    20    10   256    1
    21   204    11    1
    22    11   254    1
    23   202    12    1
    24    12   259    1
    25   203    13    1
    26    13   258    1
    27   205    14    1
    28    14   262    1
    29   206    15    1
    30    15   261    1
    31   207    16    1
    32    16   264    1
    33   208    17    1
    34    17   263    1
    35   209    18    1
    36    18   266    1
    37   211    19    1
    38    19   265    1
    39   210    20    1
    40    20   284    1
    41   213    21    1
    42    21   267    1
    43    22   192    1
    44    22   298    1
    45    23   193    1
    46    23   299    1
    47    24   194    1
    48    24   300    1
    49    25   195    1
    50    25   301    1
    51    26   198    1
    52    26   302    1
    53    27   196    1
    54    27   303    1
    55    28   197    1
    56    28   304    1
    57    29   199    1
    58    29   305    1
    59    30   200    1
    60    30   306    1
    61    31   201    1
    62    31   307    1
    63    32   202    1
    64    32   308    1
    65    33   203    1
    66    33   309    1
    67    34   204    1
    68    34   310    1
    69    35   205    1
    70    35   311    1
    71    36   206    1
    72    36   312    1
    73    37   207    1
    74    37   313    1
    75   212    38    1
    76    38   290    1
    77    39   208    1
    78    39   314    1
    79    40   209    1
    80    40   315    1
    81    41   210    1
    82    41   317    1
    83    42   211    1
    84    42   318    1
    85   215    43    1
    86    43   289    1
    87    44   212    1
    88    44   319    1
    89    45   213    1
    90    45   320    1
    91   214    46    1
    92    46   316    1
    93   217    47    1
    94    47   295    1
    95    48   214    1
    96    48   326    1
    97    49   215    1
    98    49   327    1
    99   216    50    1
   100    50   328    1
   101    51   216    1
   102    51   331    1
   103    52   217    1
   104    52   332    1
   105   218    53    1
   106    53   321    1
   107    54   218    1
   108    54   336    1
   109    55   219    1
   110    55   337    1
   111   219    56    1
   112    56   338    1
   113   244    57    1
   114    57   335    1
   115    58   244    1
   116    58   344    1
   117    59   245    1
   118    59   345    1
   119   245    60    1
   120    60   348    1
   121   324    61    1
   122    61   341    1
   123    62   324    1
   124    62   352    1
   125    63   325    1
   126    63   353    1
   127   325    64    1
   128    64   356    1
   129   346    65    1
   130    65   351    1
   131   220    66    1
   132    66   646    1
   133   221    67    1
   134    67   647    1
   135   222    68    1
   136    68   648    1
   137   223    69    1
   138    69   649    1
   139   224    70    1
   140    70   650    1
   141   225    71    1
   142    71   651    1
   143   226    72    1
   144    72   652    1
   145   227    73    1
   146    73   653    1
   147   228    74    1
   148    74   654    1
   149   229    75    1
   150    75   655    1
   151   230    76    1
   152    76   656    1
   153   231    77    1
   154    77   657    1
   155   232    78    1
   156    78   658    1
   157   233    79    1
   158    79   659    1
   159   234    80    1
   160    80   660    1
   161   235    81    1
   162    81   661    1
   163   236    82    1
   164    82   662    1
   165   237    83    1
   166    83   663    1
   167   238    84    1
   168    84   664    1
   169   239    85    1
   170    85   665    1
   171    86   346    1
   172    86   381    1
   173    87   347    1
   174    87   384    1
   175   240    88    1
   176    88   666    1
   177   241    89    1
   178    89   668    1
   179   242    90    1
   180    90   676    1
   181   243    91    1
   182    91   677    1
   183   246    92    1
   184    92   678    1
   185   247    93    1
   186    93   679    1
   187   347    94    1
   188    94   393    1
   189   268    95    1
   190    95   680    1
   191   269    96    1
   192    96   681    1
   193   271    97    1
   194    97   682    1
   195   270    98    1
   196    98   683    1
   197   272    99    1
   198    99   684    1
   199   273   100    1
   200   100   685    1
   201   274   101    1
   202   101   686    1
   203   275   102    1
   204   102   687    1
   205   276   103    1
   206   103   688    1
   207   277   104    1
   208   104   689    1
   209   278   105    1
   210   105   690    1
   211   279   106    1
   212   106   692    1
   213   280   107    1
   214   107   691    1
   215   281   108    1
   216   108   693    1
   217   282   109    1
   218   109   694    1
   219   283   110    1
   220   110   695    1
   221   285   111    1
   222   111   696    1
   223   286   112    1
   224   112   697    1
   225   287   113    1
   226   113   698    1
   227   288   114    1
   228   114   699    1
   229   291   115    1
   230   115   701    1
   231   292   116    1
   232   116   702    1
   233   293   117    1
   234   117   703    1
   235   294   118    1
   236   118   704    1
   237   296   119    1
   238   119   706    1
   239   297   120    1
   240   120   707    1
   241   322   121    1
   242   121   714    1
   243   323   122    1
   244   122   715    1
   245   385   123    1
   246   123   386    1
   247   329   124    1
   248   124   716    1
   249   330   125    1
   250   125   717    1
   251   333   126    1
   252   126   720    1
   253   334   127    1
   254   127   721    1
   255   339   128    1
   256   128   722    1
   257   340   129    1
   258   129   723    1
   259   130   385    1
   260   130   401    1
   261   131   387    1
   262   131   402    1
   263   342   132    1
   264   132   724    1
   265   343   133    1
   266   133   725    1
   267   349   134    1
   268   134   730    1
   269   350   135    1
   270   135   731    1
   271   387   136    1
   272   407   136    1
   273   354   137    1
   274   137   733    1
   275   355   138    1
   276   138   734    1
   277   357   139    1
   278   139   736    1
   279   140   403    1
   280   406   140    1
   281   141   358    1
   282   141   737    1
   283   142   359    1
   284   142   738    1
   285   143   360    1
   286   143   739    1
   287   144   361    1
   288   144   740    1
   289   145   362    1
   290   145   741    1
   291   146   363    1
   292   146   742    1
   293   147   364    1
   294   147   743    1
   295   148   365    1
   296   148   744    1
   297   149   366    1
   298   149   745    1
   299   150   367    1
   300   150   746    1
   301   151   369    1
   302   151   747    1
   303   152   368    1
   304   152   748    1
   305   153   370    1
   306   153   749    1
   307   154   371    1
   308   154   750    1
   309   155   372    1
   310   155   752    1
   311   374   156    1
   312   156   751    1
   313   157   373    1
   314   157   753    1
   315   158   375    1
   316   158   754    1
   317   159   376    1
   318   159   755    1
   319   160   377    1
   320   160   756    1
   321   161   378    1
   322   161   757    1
   323   162   379    1
   324   162   760    1
   325   163   380    1
   326   163   761    1
   327   164   382    1
   328   164   765    1
   329   165   383    1
   330   165   766    1
   331   166   388    1
   332   166   768    1
   333   167   389    1
   334   167   769    1
   335   168   390    1
   336   168   771    1
   337   169   391    1
   338   169   772    1
   339   392   170    1
   340   170   774    1
   341   394   171    1
   342   171   775    1
   343   172   395    1
   344   172   776    1
   345   173   396    1
   346   173   777    1
   347   174   406    1
   348   174   413    1
   349   397   175    1
   350   175   782    1
   351   398   176    1
   352   176   783    1
   353   177   399    1
   354   177   784    1
   355   178   400    1
   356   178   785    1
   357   179   407    1
   358   179   416    1
   359   180   404    1
   360   180   786    1
   361   181   405    1
   362   181   787    1
   363   408   182    1
   364   182   792    1
   365   183   409    1
   366   183   793    1
   367   184   410    1
   368   184   794    1
   369   411   185    1
   370   185   795    1
   371   412   186    1
   372   186   796    1
   373   414   187    1
   374   187   797    1
   375   415   188    1
   376   188   798    1
   377   189   417    1
   378   189   799    1
   379   190   418    1
   380   190   800    1
   381   191   419    1
   382   191   801    1
   383   192   220    1
   384   192   248    1
   385   193   221    1
   386   193   249    1
   387   194   222    1
   388   194   250    1
   389   195   223    1
   390   195   254    1
   391   196   225    1
   392   196   252    1
   393   197   226    1
   394   197   253    1
   395   198   224    1
   396   198   251    1
   397   199   227    1
   398   199   256    1
   399   200   228    1
   400   200   255    1
   401   201   229    1
   402   201   258    1
   403   202   230    1
   404   202   257    1
   405   203   231    1
   406   203   259    1
   407   204   232    1
   408   204   261    1
   409   205   233    1
   410   205   260    1
   411   206   234    1
   412   206   263    1
   413   207   235    1
   414   207   262    1
   415   208   236    1
   416   208   265    1
   417   209   237    1
   418   209   264    1
   419   210   238    1
   420   210   266    1
   421   211   239    1
   422   211   267    1
   423   212   240    1
   424   212   284    1
   425   213   241    1
   426   213   289    1
   427   214   242    1
   428   214   290    1
   429   215   243    1
   430   215   295    1
   431   216   246    1
   432   216   316    1
   433   217   247    1
   434   217   321    1
   435   218   293    1
   436   218   335    1
   437   219   294    1
   438   219   328    1
   439   220   268    1
   440   220   420    1
   441   221   269    1
   442   221   421    1
   443   222   270    1
   444   222   422    1
   445   223   271    1
   446   223   423    1
   447   224   272    1
   448   224   424    1
   449   225   273    1
   450   225   425    1
   451   226   274    1
   452   226   426    1
   453   227   275    1
   454   227   427    1
   455   228   276    1
   456   228   428    1
   457   229   277    1
   458   229   429    1
   459   230   278    1
   460   230   430    1
   461   231   279    1
   462   231   431    1
   463   232   280    1
   464   232   432    1
   465   233   281    1
   466   233   433    1
   467   234   282    1
   468   234   434    1
   469   235   283    1
   470   235   435    1
   471   236   285    1
   472   236   436    1
   473   237   286    1
   474   237   437    1
   475   238   287    1
   476   238   438    1
   477   239   288    1
   478   239   439    1
   479   240   291    1
   480   240   440    1
   481   241   292    1
   482   241   441    1
   483   242   296    1
   484   242   442    1
   485   243   297    1
   486   243   443    1
   487   244   329    1
   488   244   341    1
   489   245   330    1
   490   245   338    1
   491   246   322    1
   492   246   444    1
   493   247   323    1
   494   247   445    1
   495   248   446    1
   496   248   447    1
   497   249   448    1
   498   249   449    1
   499   250   450    1
   500   250   451    1
   501   251   452    1
   502   251   453    1
   503   252   454    1
   504   252   455    1
   505   253   456    1
   506   253   457    1
   507   254   458    1
   508   254   459    1
   509   255   460    1
   510   255   461    1
   511   256   462    1
   512   256   463    1
   513   257   464    1
   514   257   465    1
   515   258   466    1
   516   258   467    1
   517   259   468    1
   518   259   469    1
   519   260   470    1
   520   260   471    1
   521   261   472    1
   522   261   473    1
   523   262   474    1
   524   262   475    1
   525   263   476    1
   526   263   477    1
   527   264   478    1
   528   264   479    1
   529   265   480    1
   530   265   481    1
   531   266   482    1
   532   266   483    1
   533   267   484    1
   534   267   485    1
   535   268   298    1
   536   268   486    1
   537   269   299    1
   538   269   487    1
   539   270   300    1
   540   270   489    1
   541   271   301    1
   542   271   488    1
   543   272   302    1
   544   272   490    1
   545   273   303    1
   546   273   491    1
   547   274   304    1
   548   274   492    1
   549   275   305    1
   550   275   493    1
   551   276   306    1
   552   276   494    1
   553   277   307    1
   554   277   495    1
   555   278   308    1
   556   278   496    1
   557   279   309    1
   558   279   497    1
   559   280   310    1
   560   280   498    1
   561   281   311    1
   562   281   499    1
   563   282   312    1
   564   282   500    1
   565   283   313    1
   566   283   501    1
   567   284   502    1
   568   284   503    1
   569   285   314    1
   570   285   504    1
   571   286   315    1
   572   286   505    1
   573   287   317    1
   574   287   506    1
   575   288   318    1
   576   288   507    1
   577   289   508    1
   578   289   509    1
   579   290   510    1
   580   290   511    1
   581   291   319    1
   582   291   512    1
   583   292   320    1
   584   292   513    1
   585   293   333    1
   586   293   514    1
   587   294   334    1
   588   294   515    1
   589   295   516    1
   590   295   517    1
   591   296   326    1
   592   296   518    1
   593   297   327    1
   594   297   519    1
   595   298   358    1
   596   298   520    1
   597   299   359    1
   598   299   521    1
   599   300   361    1
   600   300   523    1
   601   301   360    1
   602   301   522    1
   603   302   362    1
   604   302   524    1
   605   303   363    1
   606   303   525    1
   607   304   364    1
   608   304   526    1
   609   305   365    1
   610   305   527    1
   611   306   366    1
   612   306   528    1
   613   307   367    1
   614   307   529    1
   615   308   368    1
   616   308   530    1
   617   309   370    1
   618   309   531    1
   619   310   369    1
   620   310   532    1
   621   311   371    1
   622   311   533    1
   623   312   372    1
   624   312   534    1
   625   313   373    1
   626   313   535    1
   627   314   375    1
   628   314   536    1
   629   315   376    1
   630   315   537    1
   631   316   538    1
   632   316   539    1
   633   317   377    1
   634   317   540    1
   635   318   378    1
   636   318   541    1
   637   319   379    1
   638   319   542    1
   639   320   380    1
   640   320   543    1
   641   321   544    1
   642   321   545    1
   643   322   331    1
   644   322   546    1
   645   323   332    1
   646   323   547    1
   647   324   342    1
   648   324   351    1
   649   325   343    1
   650   325   348    1
   651   326   382    1
   652   326   548    1
   653   327   383    1
   654   327   549    1
   655   328   550    1
   656   328   551    1
   657   329   339    1
   658   329   552    1
   659   330   340    1
   660   330   553    1
   661   331   388    1
   662   331   554    1
   663   332   389    1
   664   332   555    1
   665   333   336    1
   666   333   556    1
   667   334   337    1
   668   334   557    1
   669   335   558    1
   670   335   559    1
   671   336   390    1
   672   336   560    1
   673   337   391    1
   674   337   561    1
   675   338   562    1
   676   338   563    1
   677   339   344    1
   678   339   564    1
   679   340   345    1
   680   340   565    1
   681   341   566    1
   682   341   567    1
   683   342   349    1
   684   342   568    1
   685   343   350    1
   686   343   569    1
   687   344   395    1
   688   344   570    1
   689   345   396    1
   690   345   571    1
   691   346   354    1
   692   346   386    1
   693   347   355    1
   694   347   356    1
   695   348   572    1
   696   348   573    1
   697   349   352    1
   698   349   574    1
   699   350   353    1
   700   350   575    1
   701   351   576    1
   702   351   577    1
   703   352   399    1
   704   352   578    1
   705   353   400    1
   706   353   579    1
   707   354   357    1
   708   354   580    1
   709   355   374    1
   710   355   581    1
   711   356   582    1
   712   356   583    1
   713   357   381    1
   714   357   584    1
   715   358   585    1
   716   358   586    1
   717   359   587    1
   718   359   588    1
   719   360   589    1
   720   360   590    1
   721   361   591    1
   722   361   592    1
   723   362   593    1
   724   362   594    1
   725   363   595    1
   726   363   596    1
   727   364   597    1
   728   364   598    1
   729   365   599    1
   730   365   600    1
   731   366   601    1
   732   366   602    1
   733   367   603    1
   734   367   604    1
   735   368   605    1
   736   368   606    1
   737   369   607    1
   738   369   608    1
   739   370   609    1
   740   370   610    1
   741   371   611    1
   742   371   612    1
   743   372   613    1
   744   372   614    1
   745   373   615    1
   746   373   616    1
   747   374   384    1
   748   374   617    1
   749   375   618    1
   750   375   619    1
   751   376   620    1
   752   376   621    1
   753   377   622    1
   754   377   623    1
   755   378   624    1
   756   378   625    1
   757   379   626    1
   758   379   627    1
   759   380   628    1
   760   380   629    1
   761   381   404    1
   762   381   630    1
   763   382   631    1
   764   382   632    1
   765   383   633    1
   766   383   634    1
   767   384   405    1
   768   384   635    1
   769   385   392    1
   770   385   403    1
   771   386   636    1
   772   386   637    1
   773   387   393    1
   774   387   394    1
   775   388   638    1
   776   388   639    1
   777   389   640    1
   778   389   641    1
   779   390   642    1
   780   390   643    1
   781   391   644    1
   782   391   645    1
   783   392   397    1
   784   392   667    1
   785   393   669    1
   786   393   670    1
   787   394   398    1
   788   394   671    1
   789   395   672    1
   790   395   673    1
   791   396   674    1
   792   396   675    1
   793   397   401    1
   794   397   700    1
   795   398   402    1
   796   398   705    1
   797   399   708    1
   798   399   709    1
   799   400   710    1
   800   400   711    1
   801   401   409    1
   802   401   712    1
   803   402   410    1
   804   402   713    1
   805   403   718    1
   806   403   719    1
   807   404   726    1
   808   404   727    1
   809   405   728    1
   810   405   729    1
   811   406   408    1
   812   406   417    1
   813   407   411    1
   814   407   732    1
   815   408   412    1
   816   408   735    1
   817   409   758    1
   818   409   759    1
   819   410   762    1
   820   410   763    1
   821   411   414    1
   822   411   764    1
   823   412   413    1
   824   412   767    1
   825   413   418    1
   826   413   770    1
   827   414   415    1
   828   414   773    1
   829   415   416    1
   830   415   778    1
   831   416   419    1
   832   416   779    1
   833   417   780    1
   834   417   781    1
   835   418   788    1
   836   418   789    1
   837   419   790    1
   838   419   791    1
