@<TRIPOS>MOLECULE
IMPHY014338
 67 71 0 0 0
SMALL
GASTEIGER

@<TRIPOS>ATOM
      1 O           8.5991   -2.1608    0.0000 O.3     1  UNL1       -0.3313
      2 O           6.0010   -2.6608    0.0000 O.3     1  UNL1       -0.3461
      3 O           4.2690   -2.6608    0.0000 O.3     1  UNL1       -0.3461
      4 O           6.8671   -4.1608    0.0000 O.3     1  UNL1       -0.3865
      5 O           8.5991   -5.1608    0.0000 O.3     1  UNL1       -0.3864
      6 O          10.3312   -2.1608    0.0000 O.3     1  UNL1       -0.4606
      7 O          10.3312   -4.1608    0.0000 O.3     1  UNL1       -0.3829
      8 O           6.0010   -0.6608    0.0000 O.3     1  UNL1       -0.3841
      9 O           4.2690    0.3392    0.0000 O.3     1  UNL1       -0.3864
     10 O           2.5369   -0.6608    0.0000 O.3     1  UNL1       -0.3869
     11 O          12.0871    0.9017    0.0000 O.2     1  UNL1       -0.4543
     12 O           8.5849    0.9183    0.0000 O.3     1  UNL1       -0.5058
     13 O           9.4948    2.4117    0.0000 O.2     1  UNL1       -0.2863
     14 O          12.1149    4.9708    0.0000 O.3     1  UNL1       -0.4951
     15 C           7.7331   -2.6608    0.0000 C.3     1  UNL1        0.1144
     16 C           7.7331   -3.6608    0.0000 C.3     1  UNL1        0.1120
     17 C           8.5991   -4.1608    0.0000 C.3     1  UNL1        0.1152
     18 C           9.4651   -3.6608    0.0000 C.3     1  UNL1        0.1454
     19 C           9.4651   -2.6608    0.0000 C.3     1  UNL1        0.2308
     20 C           6.8671   -2.1608    0.0000 C.3     1  UNL1        0.0796
     21 C           5.1350   -2.1608    0.0000 C.3     1  UNL1        0.1876
     22 C           5.1350   -1.1608    0.0000 C.3     1  UNL1        0.1341
     23 C           4.2690   -0.6608    0.0000 C.3     1  UNL1        0.1137
     24 C           3.4030   -1.1608    0.0000 C.3     1  UNL1        0.1069
     25 C           3.4030   -2.1608    0.0000 C.3     1  UNL1        0.0792
     26 C          10.3312   -1.1608    0.0000 C.ar    1  UNL1        0.1310
     27 C          11.2312   -0.6366    0.0000 C.ar    1  UNL1        0.0235
     28 C           9.4311   -0.6366    0.0000 C.ar    1  UNL1        0.0226
     29 C          11.2192    0.4050    0.0000 C.ar    1  UNL1        0.1463
     30 C          10.3551    0.9083    0.0000 C.ar    1  UNL1        0.1061
     31 C           9.4431    0.4050    0.0000 C.ar    1  UNL1        0.1347
     32 C          10.3589    1.9083    0.0000 C.ar    1  UNL1        0.2038
     33 C          11.2269    2.4050    0.0000 C.ar    1  UNL1        0.0681
     34 C          12.0910    1.9017    0.0000 C.ar    1  UNL1        0.1395
     35 C          11.2148    3.4466    0.0000 C.ar    1  UNL1       -0.0056
     36 C          13.0029    2.4050    0.0000 C.ar    1  UNL1       -0.0152
     37 C          12.1149    3.9708    0.0000 C.ar    1  UNL1        0.1210
     38 C          13.0150    3.4466    0.0000 C.ar    1  UNL1       -0.0164
     39 C          12.9809    5.4708    0.0000 C.3     1  UNL1        0.0788
     40 H           7.7331   -2.0408    0.0000 H       1  UNL1        0.0647
     41 H           7.7331   -4.2808    0.0000 H       1  UNL1        0.0647
     42 H           9.1360   -4.4708    0.0000 H       1  UNL1        0.0648
     43 H           9.4651   -4.2808    0.0000 H       1  UNL1        0.0683
     44 H          10.0021   -2.9708    0.0000 H       1  UNL1        0.1084
     45 H           7.2656   -1.6859    0.0000 H       1  UNL1        0.0587
     46 H           6.4685   -1.6859    0.0000 H       1  UNL1        0.0587
     47 H           5.6720   -1.8508    0.0000 H       1  UNL1        0.0937
     48 H           5.1350   -0.5408    0.0000 H       1  UNL1        0.0671
     49 H           3.7320   -0.3508    0.0000 H       1  UNL1        0.0647
     50 H           2.8660   -1.4708    0.0000 H       1  UNL1        0.0643
     51 H           2.7924   -2.0532    0.0000 H       1  UNL1        0.0587
     52 H           3.1909   -2.7434    0.0000 H       1  UNL1        0.0587
     53 H           6.8671   -4.7808    0.0000 H       1  UNL1        0.2100
     54 H           8.0622   -5.4708    0.0000 H       1  UNL1        0.2100
     55 H          10.3312   -4.7808    0.0000 H       1  UNL1        0.2102
     56 H           6.0010   -0.0408    0.0000 H       1  UNL1        0.2101
     57 H           3.7320    0.6492    0.0000 H       1  UNL1        0.2100
     58 H           2.0000   -0.9708    0.0000 H       1  UNL1        0.2100
     59 H          11.7705   -0.9424    0.0000 H       1  UNL1        0.0691
     60 H           8.8918   -0.9424    0.0000 H       1  UNL1        0.0691
     61 H          10.6755    3.7524    0.0000 H       1  UNL1        0.0662
     62 H           8.0433    0.6166    0.0000 H       1  UNL1        0.2922
     63 H          13.5350    2.0868    0.0000 H       1  UNL1        0.0656
     64 H          13.5543    3.7524    0.0000 H       1  UNL1        0.0655
     65 H          13.2909    4.9339    0.0000 H       1  UNL1        0.0660
     66 H          13.5179    5.7808    0.0000 H       1  UNL1        0.0660
     67 H          12.6709    6.0078    0.0000 H       1  UNL1        0.0660
@<TRIPOS>BOND
     1     1    15    1
     2     1    19    1
     3     2    20    1
     4    21     2    1
     5     3    21    1
     6     3    25    1
     7    16     4    1
     8     4    53    1
     9    17     5    1
    10     5    54    1
    11     6    19    1
    12     6    26    1
    13    18     7    1
    14     7    55    1
    15    22     8    1
    16     8    56    1
    17    23     9    1
    18     9    57    1
    19    24    10    1
    20    10    58    1
    21    11    29   ar
    22    11    34   ar
    23    12    31    1
    24    12    62    1
    25    13    32    2
    26    14    37    1
    27    14    39    1
    28    15    16    1
    29    15    20    1
    30    15    40    1
    31    16    17    1
    32    16    41    1
    33    17    18    1
    34    17    42    1
    35    18    19    1
    36    18    43    1
    37    19    44    1
    38    20    45    1
    39    20    46    1
    40    21    22    1
    41    21    47    1
    42    22    23    1
    43    22    48    1
    44    23    24    1
    45    23    49    1
    46    24    25    1
    47    24    50    1
    48    25    51    1
    49    25    52    1
    50    26    27   ar
    51    26    28   ar
    52    27    29   ar
    53    27    59    1
    54    28    31   ar
    55    28    60    1
    56    29    30   ar
    57    30    31   ar
    58    30    32   ar
    59    32    33   ar
    60    33    34   ar
    61    33    35   ar
    62    34    36   ar
    63    35    37   ar
    64    35    61    1
    65    36    38   ar
    66    36    63    1
    67    37    38   ar
    68    38    64    1
    69    39    65    1
    70    39    66    1
    71    39    67    1
