@<TRIPOS>MOLECULE
IMPHY001231
 10 10 0 0 0
SMALL
GASTEIGER

@<TRIPOS>ATOM
      1 O           2.8090   -0.7694    0.0000 O.3     1  UNL1       -0.4574
      2 O           4.5691   -0.4907    0.0000 O.2     1  UNL1       -0.2456
      3 C           2.0000   -0.1816    0.0000 C.3     1  UNL1        0.1115
      4 C           2.3090    0.7694    0.0000 C.2     1  UNL1       -0.0403
      5 C           3.3090    0.7694    0.0000 C.2     1  UNL1        0.0218
      6 C           3.6180   -0.1816    0.0000 C.2     1  UNL1        0.3320
      7 H           1.4336    0.0705    0.0000 H       1  UNL1        0.0743
      8 H           1.6900   -0.7186    0.0000 H       1  UNL1        0.0743
      9 H           1.9446    1.2710    0.0000 H       1  UNL1        0.0608
     10 H           3.6734    1.2710    0.0000 H       1  UNL1        0.0687
@<TRIPOS>BOND
     1     1     3    1
     2     1     6    1
     3     2     6    2
     4     3     4    1
     5     3     7    1
     6     3     8    1
     7     4     5    2
     8     4     9    1
     9     5     6    1
    10     5    10    1
