@<TRIPOS>MOLECULE
IMPHY001469
 35 39 0 0 0
SMALL
GASTEIGER

@<TRIPOS>ATOM
      1 O           6.9742    0.7936    0.0000 O.3     1  UNL1       -0.4520
      2 O           6.9742    2.4031    0.0000 O.3     1  UNL1       -0.4526
      3 N           2.5466    1.1197    0.0000 N.3     1  UNL1       -0.3087
      4 C           3.3859    0.5915    0.0000 C.3     1  UNL1        0.0378
      5 C           4.2959    1.0984    0.0000 C.ar    1  UNL1       -0.0155
      6 C           3.3779   -0.4501    0.0000 C.3     1  UNL1       -0.0075
      7 C           4.2959    2.0984    0.0000 C.ar    1  UNL1       -0.0372
      8 C           5.1619    0.5984    0.0000 C.ar    1  UNL1        0.0328
      9 C           3.4377    2.5953    0.0000 C.3     1  UNL1       -0.0146
     10 C           2.5722    2.1111    0.0000 C.3     1  UNL1        0.0004
     11 C           4.2799   -0.9709    0.0000 C.ar    1  UNL1       -0.0377
     12 C           5.1780   -0.4431    0.0000 C.ar    1  UNL1       -0.0107
     13 C           6.0279    1.0984    0.0000 C.ar    1  UNL1        0.1742
     14 C           5.1619    2.5984    0.0000 C.ar    1  UNL1       -0.0126
     15 C           6.0279    2.0984    0.0000 C.ar    1  UNL1        0.1671
     16 C           4.2716   -2.0559    0.0000 C.ar    1  UNL1       -0.0579
     17 C           6.1299   -0.9638    0.0000 C.ar    1  UNL1       -0.0536
     18 C           7.5578    1.5984    0.0000 C.3     1  UNL1        0.2333
     19 C           5.2112   -2.5984    0.0000 C.ar    1  UNL1       -0.0615
     20 C           6.1466   -2.0486    0.0000 C.ar    1  UNL1       -0.0612
     21 H           2.6402    0.1835    0.0000 H       1  UNL1        0.0513
     22 H           2.7678   -0.3393    0.0000 H       1  UNL1        0.0332
     23 H           3.1643   -1.0321    0.0000 H       1  UNL1        0.0332
     24 H           3.8387    3.0681    0.0000 H       1  UNL1        0.0326
     25 H           3.0436    3.0740    0.0000 H       1  UNL1        0.0326
     26 H           2.0000    0.8271    0.0000 H       1  UNL1        0.1225
     27 H           2.3704    2.6974    0.0000 H       1  UNL1        0.0427
     28 H           1.9594    2.0168    0.0000 H       1  UNL1        0.0427
     29 H           5.1619    3.2184    0.0000 H       1  UNL1        0.0658
     30 H           3.7334   -2.3638    0.0000 H       1  UNL1        0.0620
     31 H           6.6608   -0.6435    0.0000 H       1  UNL1        0.0624
     32 H           8.0186    1.1836    0.0000 H       1  UNL1        0.1166
     33 H           8.0186    2.0131    0.0000 H       1  UNL1        0.1166
     34 H           5.2136   -3.2184    0.0000 H       1  UNL1        0.0618
     35 H           6.6871   -2.3524    0.0000 H       1  UNL1        0.0618
@<TRIPOS>BOND
     1     1    13    1
     2     1    18    1
     3     2    15    1
     4     2    18    1
     5     3     4    1
     6     3    10    1
     7     3    26    1
     8     4     5    1
     9     4     6    1
    10     4    21    1
    11     5     7   ar
    12     5     8   ar
    13     6    11    1
    14     6    22    1
    15     6    23    1
    16     7     9    1
    17     7    14   ar
    18     8    12    1
    19     8    13   ar
    20     9    10    1
    21     9    24    1
    22     9    25    1
    23    10    27    1
    24    10    28    1
    25    11    12   ar
    26    11    16   ar
    27    12    17   ar
    28    13    15   ar
    29    14    15   ar
    30    14    29    1
    31    16    19   ar
    32    16    30    1
    33    17    20   ar
    34    17    31    1
    35    18    32    1
    36    18    33    1
    37    19    20   ar
    38    19    34    1
    39    20    35    1
