@<TRIPOS>MOLECULE
IMPHY011800
 54 53 0 0 0
SMALL
GASTEIGER

@<TRIPOS>ATOM
      1 O           2.5369   -3.0000    0.0000 O.3     1  UNL1       -0.4806
      2 O           3.4030   -4.5000    0.0000 O.2     1  UNL1       -0.2510
      3 C          11.1972    1.0000    0.0000 C.3     1  UNL1       -0.0531
      4 C          11.1972    0.0000    0.0000 C.3     1  UNL1       -0.0530
      5 C          12.0632    1.5000    0.0000 C.3     1  UNL1       -0.0531
      6 C          10.3312   -0.5000    0.0000 C.3     1  UNL1       -0.0528
      7 C          12.0632    2.5000    0.0000 C.3     1  UNL1       -0.0531
      8 C          10.3312   -1.5000    0.0000 C.3     1  UNL1       -0.0496
      9 C          12.9292    3.0000    0.0000 C.3     1  UNL1       -0.0533
     10 C           9.4651   -2.0000    0.0000 C.3     1  UNL1       -0.0348
     11 C          12.9292    4.0000    0.0000 C.3     1  UNL1       -0.0559
     12 C           6.8671   -3.5000    0.0000 C.3     1  UNL1       -0.0496
     13 C           6.0010   -3.0000    0.0000 C.3     1  UNL1       -0.0523
     14 C           7.7331   -3.0000    0.0000 C.3     1  UNL1       -0.0348
     15 C           9.4651   -3.0000    0.0000 C.2     1  UNL1       -0.0879
     16 C           5.1350   -3.5000    0.0000 C.3     1  UNL1       -0.0430
     17 C           8.5991   -3.5000    0.0000 C.2     1  UNL1       -0.0879
     18 C          13.7953    4.5000    0.0000 C.3     1  UNL1       -0.0653
     19 C           4.2690   -3.0000    0.0000 C.3     1  UNL1        0.0448
     20 C           3.4030   -3.5000    0.0000 C.2     1  UNL1        0.3047
     21 H          10.9851    1.5826    0.0000 H       1  UNL1        0.0265
     22 H          10.5866    0.8923    0.0000 H       1  UNL1        0.0265
     23 H          11.4092   -0.5826    0.0000 H       1  UNL1        0.0265
     24 H          11.8078    0.1077    0.0000 H       1  UNL1        0.0265
     25 H          12.2753    0.9174    0.0000 H       1  UNL1        0.0265
     26 H          12.6738    1.6077    0.0000 H       1  UNL1        0.0265
     27 H          10.1191    0.0826    0.0000 H       1  UNL1        0.0265
     28 H           9.7206   -0.6077    0.0000 H       1  UNL1        0.0265
     29 H          11.8512    3.0826    0.0000 H       1  UNL1        0.0265
     30 H          11.4526    2.3923    0.0000 H       1  UNL1        0.0265
     31 H          10.5432   -2.0826    0.0000 H       1  UNL1        0.0268
     32 H          10.9417   -1.3923    0.0000 H       1  UNL1        0.0268
     33 H          13.1413    2.4174    0.0000 H       1  UNL1        0.0265
     34 H          13.5398    3.1077    0.0000 H       1  UNL1        0.0265
     35 H           9.2531   -1.4174    0.0000 H       1  UNL1        0.0307
     36 H           8.8546   -2.1077    0.0000 H       1  UNL1        0.0307
     37 H          12.7172    4.5826    0.0000 H       1  UNL1        0.0263
     38 H          12.3187    3.8923    0.0000 H       1  UNL1        0.0263
     39 H           6.4685   -3.9750    0.0000 H       1  UNL1        0.0268
     40 H           7.2656   -3.9750    0.0000 H       1  UNL1        0.0268
     41 H           6.3996   -2.5250    0.0000 H       1  UNL1        0.0265
     42 H           5.6025   -2.5250    0.0000 H       1  UNL1        0.0265
     43 H           8.1316   -2.5250    0.0000 H       1  UNL1        0.0307
     44 H           7.3346   -2.5250    0.0000 H       1  UNL1        0.0307
     45 H          10.0021   -3.3100    0.0000 H       1  UNL1        0.0569
     46 H           4.7365   -3.9750    0.0000 H       1  UNL1        0.0270
     47 H           5.5335   -3.9750    0.0000 H       1  UNL1        0.0270
     48 H           8.5991   -4.1200    0.0000 H       1  UNL1        0.0569
     49 H          14.1053    3.9631    0.0000 H       1  UNL1        0.0230
     50 H          14.3322    4.8100    0.0000 H       1  UNL1        0.0230
     51 H          13.4853    5.0369    0.0000 H       1  UNL1        0.0230
     52 H           4.6675   -2.5250    0.0000 H       1  UNL1        0.0377
     53 H           3.8705   -2.5250    0.0000 H       1  UNL1        0.0377
     54 H           2.0000   -3.3100    0.0000 H       1  UNL1        0.2951
@<TRIPOS>BOND
     1     1    20    1
     2     1    54    1
     3     2    20    2
     4     3     4    1
     5     3     5    1
     6     3    21    1
     7     3    22    1
     8     4     6    1
     9     4    23    1
    10     4    24    1
    11     5     7    1
    12     5    25    1
    13     5    26    1
    14     6     8    1
    15     6    27    1
    16     6    28    1
    17     7     9    1
    18     7    29    1
    19     7    30    1
    20     8    10    1
    21     8    31    1
    22     8    32    1
    23     9    11    1
    24     9    33    1
    25     9    34    1
    26    10    15    1
    27    10    35    1
    28    10    36    1
    29    11    18    1
    30    11    37    1
    31    11    38    1
    32    12    13    1
    33    12    14    1
    34    12    39    1
    35    12    40    1
    36    13    16    1
    37    13    41    1
    38    13    42    1
    39    14    17    1
    40    14    43    1
    41    14    44    1
    42    15    17    2
    43    15    45    1
    44    16    19    1
    45    16    46    1
    46    16    47    1
    47    17    48    1
    48    18    49    1
    49    18    50    1
    50    18    51    1
    51    19    20    1
    52    19    52    1
    53    19    53    1
