@<TRIPOS>MOLECULE
IMPHY008216
 98 105 0 0 0
SMALL
GASTEIGER

@<TRIPOS>ATOM
      1 O           9.7297   -0.0402    0.0000 O.3     1  UNL1       -0.3153
      2 O          11.7768    1.2225    0.0000 O.3     1  UNL1       -0.4497
      3 O          10.8050    2.4317    0.0000 O.3     1  UNL1       -0.4501
      4 O           8.1461   -0.9907    0.0000 O.3     1  UNL1       -0.4552
      5 O           6.9109    1.8056    0.0000 O.2     1  UNL1       -0.2914
      6 O          12.7849   -2.2884    0.0000 O.3     1  UNL1       -0.5064
      7 O           9.0608    5.5009    0.0000 O.3     1  UNL1       -0.5066
      8 O           4.8382   -2.4823    0.0000 O.3     1  UNL1       -0.5064
      9 O           9.0235   -4.1332    0.0000 O.3     1  UNL1       -0.5065
     10 C           9.9390    0.9317    0.0000 C.3     1  UNL1        0.1832
     11 C           9.0729    1.4317    0.0000 C.3     1  UNL1        0.0445
     12 C           8.3359    0.7646    0.0000 C.3     1  UNL1        0.1022
     13 C           8.7410   -0.1432    0.0000 C.3     1  UNL1        0.2509
     14 C          10.8050    1.4317    0.0000 C.3     1  UNL1        0.2769
     15 C          10.6060    0.1946    0.0000 C.ar    1  UNL1        0.0344
     16 C           9.0729    2.4317    0.0000 C.ar    1  UNL1        0.0020
     17 C           7.3078    0.8878    0.0000 C.2     1  UNL1        0.1770
     18 C          11.6968    0.4168    0.0000 C.ar    1  UNL1        0.1382
     19 C           8.8116   -1.1407    0.0000 C.ar    1  UNL1        0.0247
     20 C           9.9390    2.9317    0.0000 C.ar    1  UNL1        0.1321
     21 C           6.6934    0.0543    0.0000 C.ar    1  UNL1        0.0602
     22 C          10.2214   -0.8992    0.0000 C.ar    1  UNL1       -0.0486
     23 C           7.1154   -0.8913    0.0000 C.ar    1  UNL1        0.1385
     24 C           8.1629    2.9385    0.0000 C.ar    1  UNL1       -0.0513
     25 C          12.4786   -0.4396    0.0000 C.ar    1  UNL1        0.0398
     26 C           7.9832   -1.7007    0.0000 C.ar    1  UNL1       -0.0454
     27 C           9.9550    3.9732    0.0000 C.ar    1  UNL1        0.0220
     28 C           9.7108   -1.5783    0.0000 C.ar    1  UNL1       -0.0489
     29 C          10.9831   -1.7734    0.0000 C.ar    1  UNL1       -0.0193
     30 C          12.1193   -1.5421    0.0000 C.ar    1  UNL1        0.1238
     31 C           5.6225    0.1826    0.0000 C.ar    1  UNL1       -0.0408
     32 C           8.1549    3.9801    0.0000 C.ar    1  UNL1       -0.0197
     33 C           6.4958   -1.7741    0.0000 C.ar    1  UNL1        0.0227
     34 C           9.0570    4.5009    0.0000 C.ar    1  UNL1        0.1204
     35 C          13.4561   -0.2288    0.0000 C.3     1  UNL1       -0.0023
     36 C           8.0537   -2.6981    0.0000 C.ar    1  UNL1       -0.0018
     37 C           4.9826   -0.6856    0.0000 C.ar    1  UNL1       -0.0013
     38 C           9.7814   -2.5758    0.0000 C.ar    1  UNL1       -0.0194
     39 C           5.4222   -1.6706    0.0000 C.ar    1  UNL1        0.1238
     40 C           8.9529   -3.1357    0.0000 C.ar    1  UNL1        0.1203
     41 C           7.2252   -3.2581    0.0000 C.3     1  UNL1       -0.0058
     42 C          14.1275   -0.9699    0.0000 C.2     1  UNL1       -0.0807
     43 C           3.9884   -0.5781    0.0000 C.3     1  UNL1       -0.0058
     44 C          15.1050   -0.7591    0.0000 C.2     1  UNL1       -0.0793
     45 C           7.2958   -4.2555    0.0000 C.2     1  UNL1       -0.0809
     46 C           3.5844    0.3366    0.0000 C.2     1  UNL1       -0.0809
     47 C          15.7763   -1.5002    0.0000 C.3     1  UNL1       -0.0440
     48 C          15.4111    0.1929    0.0000 C.3     1  UNL1       -0.0440
     49 C           6.4673   -4.8155    0.0000 C.2     1  UNL1       -0.0793
     50 C           2.5902    0.4441    0.0000 C.2     1  UNL1       -0.0793
     51 C           6.5379   -5.8130    0.0000 C.3     1  UNL1       -0.0440
     52 C           5.5681   -4.3779    0.0000 C.3     1  UNL1       -0.0440
     53 C           2.1862    1.3589    0.0000 C.3     1  UNL1       -0.0440
     54 C           2.0000   -0.3631    0.0000 C.3     1  UNL1       -0.0440
     55 H           8.2960    1.7764    0.0000 H       1  UNL1        0.0393
     56 H           8.0781    1.5745    0.0000 H       1  UNL1        0.0456
     57 H          11.4662    1.9657    0.0000 H       1  UNL1        0.1240
     58 H           9.6124   -1.0159    0.0000 H       1  UNL1        0.0624
     59 H           7.6296    2.6223    0.0000 H       1  UNL1        0.0623
     60 H           7.4257   -1.4293    0.0000 H       1  UNL1        0.0626
     61 H          10.4955    4.2769    0.0000 H       1  UNL1        0.0691
     62 H          10.2245   -1.2312    0.0000 H       1  UNL1        0.0623
     63 H          10.7842   -2.3606    0.0000 H       1  UNL1        0.0654
     64 H           5.3764    0.7517    0.0000 H       1  UNL1        0.0630
     65 H           7.6168    4.2880    0.0000 H       1  UNL1        0.0654
     66 H           6.7550   -2.3373    0.0000 H       1  UNL1        0.0691
     67 H          13.9809    0.1013    0.0000 H       1  UNL1        0.0358
     68 H          13.2221    0.3454    0.0000 H       1  UNL1        0.0358
     69 H          10.3389   -2.8471    0.0000 H       1  UNL1        0.0654
     70 H           6.9726   -2.6919    0.0000 H       1  UNL1        0.0357
     71 H           6.6238   -3.4086    0.0000 H       1  UNL1        0.0357
     72 H          13.9376   -1.5601    0.0000 H       1  UNL1        0.0575
     73 H           3.3864   -0.7263    0.0000 H       1  UNL1        0.0357
     74 H           4.0298   -1.1967    0.0000 H       1  UNL1        0.0357
     75 H          12.5906   -2.8771    0.0000 H       1  UNL1        0.2921
     76 H           8.5251    5.8130    0.0000 H       1  UNL1        0.2921
     77 H           4.2213   -2.4205    0.0000 H       1  UNL1        0.2921
     78 H           9.5810   -4.4045    0.0000 H       1  UNL1        0.2921
     79 H           7.8533   -4.5268    0.0000 H       1  UNL1        0.0575
     80 H           3.9503    0.8371    0.0000 H       1  UNL1        0.0575
     81 H          16.0014    0.0031    0.0000 H       1  UNL1        0.0274
     82 H          15.6010    0.7831    0.0000 H       1  UNL1        0.0274
     83 H          14.8209    0.3827    0.0000 H       1  UNL1        0.0274
     84 H          15.3168   -1.9165    0.0000 H       1  UNL1        0.0274
     85 H          16.1926   -1.9597    0.0000 H       1  UNL1        0.0274
     86 H          16.2358   -1.0840    0.0000 H       1  UNL1        0.0274
     87 H           5.8394   -3.8204    0.0000 H       1  UNL1        0.0274
     88 H           5.0106   -4.1066    0.0000 H       1  UNL1        0.0274
     89 H           5.2968   -4.9354    0.0000 H       1  UNL1        0.0274
     90 H           5.9195   -5.8568    0.0000 H       1  UNL1        0.0274
     91 H           6.5817   -6.4314    0.0000 H       1  UNL1        0.0274
     92 H           7.1564   -5.7692    0.0000 H       1  UNL1        0.0274
     93 H           2.7534    1.6094    0.0000 H       1  UNL1        0.0274
     94 H           1.9357    1.9260    0.0000 H       1  UNL1        0.0274
     95 H           1.6191    1.1084    0.0000 H       1  UNL1        0.0274
     96 H           1.4995    0.0028    0.0000 H       1  UNL1        0.0274
     97 H           1.6341   -0.8636    0.0000 H       1  UNL1        0.0274
     98 H           2.5005   -0.7290    0.0000 H       1  UNL1        0.0274
@<TRIPOS>BOND
     1    10     1    1
     2     1    13    1
     3     2    14    1
     4     2    18    1
     5     3    14    1
     6     3    20    1
     7     4    13    1
     8     4    23    1
     9     5    17    2
    10     6    30    1
    11     6    75    1
    12     7    34    1
    13     7    76    1
    14     8    39    1
    15     8    77    1
    16     9    40    1
    17     9    78    1
    18    10    11    1
    19    10    14    1
    20    10    15    1
    21    11    12    1
    22    11    16    1
    23    11    55    1
    24    12    13    1
    25    12    17    1
    26    12    56    1
    27    13    19    1
    28    14    57    1
    29    15    18   ar
    30    15    22   ar
    31    16    20   ar
    32    16    24   ar
    33    17    21    1
    34    18    25   ar
    35    19    26   ar
    36    19    28   ar
    37    20    27   ar
    38    21    23   ar
    39    21    31   ar
    40    22    29   ar
    41    22    58    1
    42    23    33   ar
    43    24    32   ar
    44    24    59    1
    45    25    30   ar
    46    25    35    1
    47    26    36   ar
    48    26    60    1
    49    27    34   ar
    50    27    61    1
    51    28    38   ar
    52    28    62    1
    53    29    30   ar
    54    29    63    1
    55    31    37   ar
    56    31    64    1
    57    32    34   ar
    58    32    65    1
    59    33    39   ar
    60    33    66    1
    61    35    42    1
    62    35    67    1
    63    35    68    1
    64    36    40   ar
    65    36    41    1
    66    37    39   ar
    67    37    43    1
    68    38    40   ar
    69    38    69    1
    70    41    45    1
    71    41    70    1
    72    41    71    1
    73    42    44    2
    74    42    72    1
    75    43    46    1
    76    43    73    1
    77    43    74    1
    78    44    47    1
    79    44    48    1
    80    45    49    2
    81    45    79    1
    82    46    50    2
    83    46    80    1
    84    47    84    1
    85    47    85    1
    86    47    86    1
    87    48    81    1
    88    48    82    1
    89    48    83    1
    90    49    51    1
    91    49    52    1
    92    50    53    1
    93    50    54    1
    94    51    90    1
    95    51    91    1
    96    51    92    1
    97    52    87    1
    98    52    88    1
    99    52    89    1
   100    53    93    1
   101    53    94    1
   102    53    95    1
   103    54    96    1
   104    54    97    1
   105    54    98    1
