@<TRIPOS>MOLECULE
IMPHY002513
 42 43 0 0 0
SMALL
GASTEIGER

@<TRIPOS>ATOM
      1 O           5.8968    1.3271    0.0000 O.3     1  UNL1       -0.3880
      2 C           5.0000   -0.4330    0.0000 C.3     1  UNL1        0.0202
      3 C           5.5878    0.3760    0.0000 C.3     1  UNL1        0.0726
      4 C           4.5000    0.4330    0.0000 C.3     1  UNL1       -0.0380
      5 C           5.5878   -1.2420    0.0000 C.3     1  UNL1       -0.0410
      6 C           3.5000    0.4330    0.0000 C.3     1  UNL1       -0.0375
      7 C           6.5388    0.0670    0.0000 C.3     1  UNL1       -0.0234
      8 C           4.5000   -1.2990    0.0000 C.2     1  UNL1       -0.0677
      9 C           6.5388   -0.9330    0.0000 C.3     1  UNL1       -0.0496
     10 C           3.0000   -0.4330    0.0000 C.3     1  UNL1       -0.0462
     11 C           3.5000   -1.2990    0.0000 C.3     1  UNL1       -0.0311
     12 C           3.0000    1.2990    0.0000 C.3     1  UNL1       -0.0438
     13 C           5.0286    1.2050    0.0000 C.3     1  UNL1       -0.0353
     14 C           5.0000   -2.1651    0.0000 C.2     1  UNL1       -0.0988
     15 C           2.0000    1.2990    0.0000 C.3     1  UNL1       -0.0624
     16 C           3.5000    2.1651    0.0000 C.3     1  UNL1       -0.0624
     17 H           5.0826    0.6451    0.0000 H       1  UNL1        0.0277
     18 H           4.3923    1.0436    0.0000 H       1  UNL1        0.0277
     19 H           5.0508   -1.5520    0.0000 H       1  UNL1        0.0275
     20 H           5.8400   -1.8084    0.0000 H       1  UNL1        0.0275
     21 H           2.8800    0.4330    0.0000 H       1  UNL1        0.0304
     22 H           7.1554    0.0022    0.0000 H       1  UNL1        0.0293
     23 H           6.6678    0.6734    0.0000 H       1  UNL1        0.0293
     24 H           6.6678   -1.5395    0.0000 H       1  UNL1        0.0266
     25 H           7.1554   -0.8682    0.0000 H       1  UNL1        0.0266
     26 H           2.5250   -0.0345    0.0000 H       1  UNL1        0.0271
     27 H           2.5250   -0.8315    0.0000 H       1  UNL1        0.0271
     28 H           2.9174   -1.5111    0.0000 H       1  UNL1        0.0310
     29 H           3.6077   -1.9096    0.0000 H       1  UNL1        0.0310
     30 H           3.6200    1.2990    0.0000 H       1  UNL1        0.0298
     31 H           5.5426    1.5517    0.0000 H       1  UNL1        0.0257
     32 H           4.6819    1.7190    0.0000 H       1  UNL1        0.0257
     33 H           4.5146    0.8583    0.0000 H       1  UNL1        0.0257
     34 H           6.5033    1.4560    0.0000 H       1  UNL1        0.2102
     35 H           4.6900   -2.7020    0.0000 H       1  UNL1        0.0535
     36 H           5.6200   -2.1651    0.0000 H       1  UNL1        0.0535
     37 H           2.0000    1.9190    0.0000 H       1  UNL1        0.0232
     38 H           1.3800    1.2990    0.0000 H       1  UNL1        0.0232
     39 H           2.0000    0.6790    0.0000 H       1  UNL1        0.0232
     40 H           4.0369    1.8551    0.0000 H       1  UNL1        0.0232
     41 H           3.8100    2.7020    0.0000 H       1  UNL1        0.0232
     42 H           2.9631    2.4751    0.0000 H       1  UNL1        0.0232
@<TRIPOS>BOND
     1     1     3    1
     2     1    34    1
     3     2     3    1
     4     2     4    1
     5     2     5    1
     6     2     8    1
     7     3     7    1
     8     3    13    1
     9     4     6    1
    10     4    17    1
    11     4    18    1
    12     5     9    1
    13     5    19    1
    14     5    20    1
    15     6    10    1
    16     6    12    1
    17     6    21    1
    18     7     9    1
    19     7    22    1
    20     7    23    1
    21     8    11    1
    22     8    14    2
    23     9    24    1
    24     9    25    1
    25    10    11    1
    26    10    26    1
    27    10    27    1
    28    11    28    1
    29    11    29    1
    30    12    15    1
    31    12    16    1
    32    12    30    1
    33    13    31    1
    34    13    32    1
    35    13    33    1
    36    14    35    1
    37    14    36    1
    38    15    37    1
    39    15    38    1
    40    15    39    1
    41    16    40    1
    42    16    41    1
    43    16    42    1
