@<TRIPOS>MOLECULE
IMPHY011481
 25 24 0 0 0
SMALL
GASTEIGER

@<TRIPOS>ATOM
      1 C           8.9282   -0.0600    0.0000 C.2     1  UNL1       -0.0612
      2 C           9.7942   -0.5600    0.0000 C.2     1  UNL1       -0.0623
      3 C           8.9282    0.9400    0.0000 C.2     1  UNL1       -0.0535
      4 C           2.0000   -1.0600    0.0000 C.3     1  UNL1       -0.0459
      5 C           2.8660   -0.5600    0.0000 C.2     1  UNL1       -0.0789
      6 C           9.7942   -1.5600    0.0000 C.2     1  UNL1       -0.0689
      7 C           8.0622    1.4400    0.0000 C.2     1  UNL1       -0.0106
      8 C           3.7320   -1.0600    0.0000 C.2     1  UNL1       -0.0148
      9 C          10.6603   -2.0600    0.0000 C.2     1  UNL1       -0.0987
     10 C           7.1962    0.9400    0.0000 C.1     1  UNL1       -0.0603
     11 C           4.5981   -0.5600    0.0000 C.1     1  UNL1       -0.0606
     12 C           6.3301    0.4400    0.0000 C.1     1  UNL1       -0.0098
     13 C           5.4641   -0.0600    0.0000 C.1     1  UNL1       -0.0098
     14 H           8.3913   -0.3700    0.0000 H       1  UNL1        0.0618
     15 H          10.3312   -0.2500    0.0000 H       1  UNL1        0.0617
     16 H           9.4651    1.2500    0.0000 H       1  UNL1        0.0624
     17 H           1.6900   -0.5231    0.0000 H       1  UNL1        0.0272
     18 H           1.4631   -1.3700    0.0000 H       1  UNL1        0.0272
     19 H           2.3100   -1.5969    0.0000 H       1  UNL1        0.0272
     20 H           2.8660    0.0600    0.0000 H       1  UNL1        0.0575
     21 H           9.2573   -1.8700    0.0000 H       1  UNL1        0.0612
     22 H           8.0622    2.0600    0.0000 H       1  UNL1        0.0712
     23 H           3.7320   -1.6800    0.0000 H       1  UNL1        0.0709
     24 H          10.6603   -2.6800    0.0000 H       1  UNL1        0.0535
     25 H          11.1972   -1.7500    0.0000 H       1  UNL1        0.0535
@<TRIPOS>BOND
     1     1     2    2
     2     1     3    1
     3     1    14    1
     4     2     6    1
     5     2    15    1
     6     3     7    2
     7     3    16    1
     8     4     5    1
     9     4    17    1
    10     4    18    1
    11     4    19    1
    12     5     8    2
    13     5    20    1
    14     6     9    2
    15     6    21    1
    16     7    10    1
    17     7    22    1
    18     8    11    1
    19     8    23    1
    20     9    24    1
    21     9    25    1
    22    10    12    3
    23    11    13    3
    24    12    13    1
