@<TRIPOS>MOLECULE
IMPHY000576
 47 50 0 0 0
SMALL
GASTEIGER

@<TRIPOS>ATOM
      1 O           4.8694   -1.7436    0.0000 O.3     1  UNL1       -0.4528
      2 O           5.6476    1.5489    0.0000 O.3     1  UNL1       -0.3867
      3 O           6.4513   -2.5518    0.0000 O.2     1  UNL1       -0.2452
      4 O           7.3327    0.4876    0.0000 O.2     1  UNL1       -0.4570
      5 O           8.5950    1.7455    0.0000 O.3     1  UNL1       -0.4177
      6 O          10.1841    2.5518    0.0000 O.2     1  UNL1       -0.2452
      7 C           3.7508   -0.2112    0.0000 C.2     1  UNL1       -0.0216
      8 C           2.7354   -0.4434    0.0000 C.3     1  UNL1       -0.0101
      9 C           4.5598   -0.7990    0.0000 C.3     1  UNL1        0.1350
     10 C           5.3688   -0.2112    0.0000 C.3     1  UNL1        0.0646
     11 C           4.0598    0.7399    0.0000 C.2     1  UNL1       -0.0375
     12 C           5.0598    0.7399    0.0000 C.3     1  UNL1        0.0874
     13 C           2.0324    0.3253    0.0000 C.3     1  UNL1       -0.0438
     14 C           3.3748    1.5246    0.0000 C.3     1  UNL1       -0.0289
     15 C           2.3543    1.3159    0.0000 C.3     1  UNL1       -0.0485
     16 C           6.1715   -0.7976    0.0000 C.2     1  UNL1        0.0805
     17 C           2.0000   -1.1211    0.0000 C.3     1  UNL1       -0.0560
     18 C           2.9546   -1.4191    0.0000 C.3     1  UNL1       -0.0560
     19 C           5.8635   -1.7427    0.0000 C.2     1  UNL1        0.3392
     20 C           7.1231   -0.4902    0.0000 C.2     1  UNL1        0.0998
     21 C           8.2843    0.7950    0.0000 C.3     1  UNL1        0.2661
     22 C           9.0923    0.2058    0.0000 C.2     1  UNL1        0.0058
     23 C           9.9023    0.7922    0.0000 C.2     1  UNL1        0.0366
     24 C           9.5950    1.7438    0.0000 C.2     1  UNL1        0.3379
     25 C          10.8528    0.4815    0.0000 C.3     1  UNL1       -0.0330
     26 H           3.8728   -1.2995    0.0000 H       1  UNL1        0.0789
     27 H           6.0571    0.2875    0.0000 H       1  UNL1        0.0420
     28 H           4.7783    1.2923    0.0000 H       1  UNL1        0.0648
     29 H           1.4842    0.6149    0.0000 H       1  UNL1        0.0274
     30 H           1.6532   -0.1653    0.0000 H       1  UNL1        0.0274
     31 H           3.9048    1.8464    0.0000 H       1  UNL1        0.0311
     32 H           3.1485    2.1018    0.0000 H       1  UNL1        0.0311
     33 H           2.3359    1.9356    0.0000 H       1  UNL1        0.0269
     34 H           1.7406    1.4038    0.0000 H       1  UNL1        0.0269
     35 H           1.5798   -0.6652    0.0000 H       1  UNL1        0.0238
     36 H           1.5441   -1.5413    0.0000 H       1  UNL1        0.0238
     37 H           2.4202   -1.5770    0.0000 H       1  UNL1        0.0238
     38 H           2.3496   -1.5550    0.0000 H       1  UNL1        0.0238
     39 H           3.0905   -2.0240    0.0000 H       1  UNL1        0.0238
     40 H           3.5595   -1.2832    0.0000 H       1  UNL1        0.0238
     41 H           5.3954    2.1153    0.0000 H       1  UNL1        0.2102
     42 H           7.5831   -0.9059    0.0000 H       1  UNL1        0.1030
     43 H           8.1862    0.1828    0.0000 H       1  UNL1        0.1257
     44 H           9.0912   -0.4142    0.0000 H       1  UNL1        0.0650
     45 H          10.6602   -0.1078    0.0000 H       1  UNL1        0.0280
     46 H          11.4422    0.2889    0.0000 H       1  UNL1        0.0280
     47 H          11.0455    1.0708    0.0000 H       1  UNL1        0.0280
@<TRIPOS>BOND
     1     1     9    1
     2     1    19    1
     3    12     2    1
     4     2    41    1
     5     3    19    2
     6     4    20    1
     7    21     4    1
     8     5    21    1
     9     5    24    1
    10     6    24    2
    11     7     8    1
    12     7     9    1
    13     7    11    2
    14     8    13    1
    15     8    17    1
    16     8    18    1
    17     9    10    1
    18     9    26    1
    19    10    12    1
    20    10    16    1
    21    10    27    1
    22    11    12    1
    23    11    14    1
    24    12    28    1
    25    13    15    1
    26    13    29    1
    27    13    30    1
    28    14    15    1
    29    14    31    1
    30    14    32    1
    31    15    33    1
    32    15    34    1
    33    16    19    1
    34    16    20    2
    35    17    35    1
    36    17    36    1
    37    17    37    1
    38    18    38    1
    39    18    39    1
    40    18    40    1
    41    20    42    1
    42    21    22    1
    43    21    43    1
    44    22    23    2
    45    22    44    1
    46    23    24    1
    47    23    25    1
    48    25    45    1
    49    25    46    1
    50    25    47    1
