@<TRIPOS>MOLECULE
IMPHY004831
 63 66 0 0 0
SMALL
GASTEIGER

@<TRIPOS>ATOM
      1 O          11.5923   -0.1804    0.0000 O.3     1  UNL1       -0.3076
      2 O          10.7205   -1.6771    0.0000 O.3     1  UNL1       -0.4571
      3 O          14.1846   -1.6904    0.0000 O.3     1  UNL1       -0.3863
      4 O          12.4487   -2.6838    0.0000 O.3     1  UNL1       -0.3829
      5 O          14.1923    0.3095    0.0000 O.3     1  UNL1       -0.3841
      6 O          12.4641    1.3162    0.0000 O.3     1  UNL1       -0.3648
      7 O           6.3580   -0.1776    0.0000 O.2     1  UNL1       -0.4507
      8 O           8.9846   -2.6704    0.0000 O.3     1  UNL1       -0.4914
      9 O           4.5981   -1.1429    0.0000 O.3     1  UNL1       -0.4884
     10 O           2.8660   -0.1429    0.0000 O.3     1  UNL1       -0.4883
     11 O           2.8660    1.8571    0.0000 O.3     1  UNL1       -0.4884
     12 O           4.5981    2.8571    0.0000 O.3     1  UNL1       -0.5027
     13 O           6.3465    2.8917    0.0000 O.2     1  UNL1       -0.2869
     14 C          13.3205   -1.1871    0.0000 C.3     1  UNL1        0.1174
     15 C          12.4525   -1.6838    0.0000 C.3     1  UNL1        0.1456
     16 C          13.3243   -0.1871    0.0000 C.3     1  UNL1        0.1342
     17 C          11.5884   -1.1804    0.0000 C.3     1  UNL1        0.2328
     18 C          12.4602    0.3162    0.0000 C.3     1  UNL1        0.1889
     19 C           9.8564   -1.1738    0.0000 C.ar    1  UNL1        0.1654
     20 C           8.9884   -1.6704    0.0000 C.ar    1  UNL1        0.1623
     21 C           9.8602   -0.1738    0.0000 C.ar    1  UNL1       -0.0155
     22 C           8.1282   -0.1671    0.0000 C.ar    1  UNL1        0.0211
     23 C           8.1244   -1.1671    0.0000 C.ar    1  UNL1       -0.0056
     24 C           8.9962    0.3296    0.0000 C.ar    1  UNL1       -0.0474
     25 C           7.2641    0.3362    0.0000 C.ar    1  UNL1        0.1395
     26 C           5.4641    0.3571    0.0000 C.ar    1  UNL1        0.1881
     27 C           5.4641    1.3571    0.0000 C.ar    1  UNL1        0.1128
     28 C           7.2641    1.3779    0.0000 C.ar    1  UNL1        0.0288
     29 C           6.3580    1.8917    0.0000 C.ar    1  UNL1        0.1969
     30 C           4.5981   -0.1429    0.0000 C.ar    1  UNL1        0.2088
     31 C           4.5981    1.8571    0.0000 C.ar    1  UNL1        0.1770
     32 C           3.7320    0.3571    0.0000 C.ar    1  UNL1        0.2110
     33 C           3.7320    1.3571    0.0000 C.ar    1  UNL1        0.2080
     34 C           8.1166   -3.1671    0.0000 C.3     1  UNL1        0.0790
     35 C           3.7320   -1.6429    0.0000 C.3     1  UNL1        0.0791
     36 C           2.0000    0.3571    0.0000 C.3     1  UNL1        0.0791
     37 C           2.0000    1.3571    0.0000 C.3     1  UNL1        0.0791
     38 H          13.3181   -1.8071    0.0000 H       1  UNL1        0.0649
     39 H          11.9144   -1.9917    0.0000 H       1  UNL1        0.0683
     40 H          13.3267    0.4329    0.0000 H       1  UNL1        0.0671
     41 H          11.0527   -0.8684    0.0000 H       1  UNL1        0.1085
     42 H          11.9245    0.6283    0.0000 H       1  UNL1        0.0937
     43 H          14.7227   -1.3825    0.0000 H       1  UNL1        0.2100
     44 H          12.9844   -2.9958    0.0000 H       1  UNL1        0.2102
     45 H          14.1947    0.9295    0.0000 H       1  UNL1        0.2101
     46 H          11.9283    1.6283    0.0000 H       1  UNL1        0.2126
     47 H          10.3984    0.1342    0.0000 H       1  UNL1        0.0655
     48 H           7.5862   -1.4750    0.0000 H       1  UNL1        0.0662
     49 H           8.9985    0.9496    0.0000 H       1  UNL1        0.0626
     50 H           7.7998    1.6900    0.0000 H       1  UNL1        0.0693
     51 H           7.8087   -2.6289    0.0000 H       1  UNL1        0.0660
     52 H           7.5785   -3.4750    0.0000 H       1  UNL1        0.0660
     53 H           8.4246   -3.7052    0.0000 H       1  UNL1        0.0660
     54 H           4.0611    3.1671    0.0000 H       1  UNL1        0.2923
     55 H           3.4220   -1.1060    0.0000 H       1  UNL1        0.0660
     56 H           3.1951   -1.9529    0.0000 H       1  UNL1        0.0660
     57 H           4.0420   -2.1799    0.0000 H       1  UNL1        0.0660
     58 H           2.3100    0.8940    0.0000 H       1  UNL1        0.0660
     59 H           1.4631    0.6671    0.0000 H       1  UNL1        0.0660
     60 H           1.6900   -0.1799    0.0000 H       1  UNL1        0.0660
     61 H           1.6900    1.8940    0.0000 H       1  UNL1        0.0660
     62 H           1.4631    1.0471    0.0000 H       1  UNL1        0.0660
     63 H           2.3100    0.8201    0.0000 H       1  UNL1        0.0660
@<TRIPOS>BOND
     1     1    17    1
     2     1    18    1
     3    17     2    1
     4     2    19    1
     5     3    14    1
     6     3    43    1
     7     4    15    1
     8     4    44    1
     9    16     5    1
    10     5    45    1
    11    18     6    1
    12     6    46    1
    13     7    25   ar
    14     7    26   ar
    15     8    20    1
    16     8    34    1
    17     9    30    1
    18     9    35    1
    19    10    32    1
    20    10    36    1
    21    11    33    1
    22    11    37    1
    23    12    31    1
    24    12    54    1
    25    13    29    2
    26    14    15    1
    27    14    16    1
    28    14    38    1
    29    15    17    1
    30    15    39    1
    31    16    18    1
    32    16    40    1
    33    17    41    1
    34    18    42    1
    35    19    20   ar
    36    19    21   ar
    37    20    23   ar
    38    21    24   ar
    39    21    47    1
    40    22    23   ar
    41    22    24   ar
    42    22    25    1
    43    23    48    1
    44    24    49    1
    45    25    28   ar
    46    26    27   ar
    47    26    30   ar
    48    27    29   ar
    49    27    31   ar
    50    28    29   ar
    51    28    50    1
    52    30    32   ar
    53    31    33   ar
    54    32    33   ar
    55    34    51    1
    56    34    52    1
    57    34    53    1
    58    35    55    1
    59    35    56    1
    60    35    57    1
    61    36    58    1
    62    36    59    1
    63    36    60    1
    64    37    61    1
    65    37    62    1
    66    37    63    1
