@<TRIPOS>MOLECULE
IMPHY000328
 65 69 0 0 0
SMALL
GASTEIGER

@<TRIPOS>ATOM
      1 N           9.0503    2.1557    0.0000 N.3     1  UNL1       -0.3018
      2 N           2.8641   -2.5357    0.0000 N.3     1  UNL1       -0.3162
      3 C           8.2572    0.5166    0.0000 C.3     1  UNL1       -0.0092
      4 C           8.2572   -0.4834    0.0000 C.3     1  UNL1       -0.0308
      5 C           7.3912   -0.9834    0.0000 C.3     1  UNL1       -0.0343
      6 C           6.5251   -0.4834    0.0000 C.3     1  UNL1       -0.0323
      7 C           9.2034    0.8214    0.0000 C.3     1  UNL1       -0.0186
      8 C           5.6151   -0.9902    0.0000 C.3     1  UNL1       -0.0260
      9 C           7.3912    1.0166    0.0000 C.3     1  UNL1       -0.0454
     10 C           9.2034   -0.7881    0.0000 C.3     1  UNL1       -0.0491
     11 C           6.5251    0.5166    0.0000 C.3     1  UNL1       -0.0489
     12 C           8.1590    1.4999    0.0000 C.3     1  UNL1        0.0051
     13 C           9.7870    0.0166    0.0000 C.3     1  UNL1       -0.0480
     14 C           5.6071   -2.0318    0.0000 C.3     1  UNL1       -0.0340
     15 C           9.6975    1.6772    0.0000 C.3     1  UNL1        0.0107
     16 C           7.4072   -2.0249    0.0000 C.3     1  UNL1       -0.0494
     17 C           6.5092   -2.5526    0.0000 C.3     1  UNL1       -0.0494
     18 C           4.6883   -0.4261    0.0000 C.3     1  UNL1       -0.0457
     19 C           4.6717   -2.5816    0.0000 C.3     1  UNL1       -0.0342
     20 C           5.6228    0.0098    0.0000 C.3     1  UNL1       -0.0590
     21 C           3.7404   -0.9541    0.0000 C.3     1  UNL1       -0.0370
     22 C           3.7320   -2.0390    0.0000 C.3     1  UNL1        0.0076
     23 C          10.6488    1.9854    0.0000 C.3     1  UNL1       -0.0492
     24 C           9.0529    3.1557    0.0000 C.3     1  UNL1       -0.0125
     25 C           2.0000   -2.0324    0.0000 C.3     1  UNL1       -0.0155
     26 H           8.3471   -1.3286    0.0000 H       1  UNL1        0.0309
     27 H           8.1305   -1.4027    0.0000 H       1  UNL1        0.0306
     28 H           7.2612   -0.0584    0.0000 H       1  UNL1        0.0309
     29 H          10.0522    0.8655    0.0000 H       1  UNL1        0.0322
     30 H           7.7897    1.4916    0.0000 H       1  UNL1        0.0271
     31 H           6.9926    1.4916    0.0000 H       1  UNL1        0.0271
     32 H           8.9524   -1.3550    0.0000 H       1  UNL1        0.0268
     33 H           9.7408   -1.0973    0.0000 H       1  UNL1        0.0268
     34 H           6.3131    1.0992    0.0000 H       1  UNL1        0.0268
     35 H           5.9145    0.4090    0.0000 H       1  UNL1        0.0268
     36 H           7.8859    2.0566    0.0000 H       1  UNL1        0.0432
     37 H           7.5628    1.3299    0.0000 H       1  UNL1        0.0432
     38 H          10.2479   -0.3981    0.0000 H       1  UNL1        0.0269
     39 H          10.2479    0.4314    0.0000 H       1  UNL1        0.0269
     40 H           5.6104   -2.8818    0.0000 H       1  UNL1        0.0307
     41 H           9.7973    2.2891    0.0000 H       1  UNL1        0.0463
     42 H           7.6252   -2.6053    0.0000 H       1  UNL1        0.0268
     43 H           8.0164   -1.9094    0.0000 H       1  UNL1        0.0268
     44 H           6.1119   -3.0286    0.0000 H       1  UNL1        0.0268
     45 H           6.9101   -3.0255    0.0000 H       1  UNL1        0.0268
     46 H           5.0965    0.0405    0.0000 H       1  UNL1        0.0271
     47 H           4.2984    0.0559    0.0000 H       1  UNL1        0.0271
     48 H           4.2744   -3.0575    0.0000 H       1  UNL1        0.0283
     49 H           5.0726   -3.0544    0.0000 H       1  UNL1        0.0283
     50 H           6.2428    0.0050    0.0000 H       1  UNL1        0.0235
     51 H           5.6276    0.6297    0.0000 H       1  UNL1        0.0235
     52 H           5.0028    0.0145    0.0000 H       1  UNL1        0.0235
     53 H           3.5358   -0.3688    0.0000 H       1  UNL1        0.0280
     54 H           3.1288   -1.0555    0.0000 H       1  UNL1        0.0280
     55 H           3.7308   -2.6590    0.0000 H       1  UNL1        0.0460
     56 H          10.8399    1.3955    0.0000 H       1  UNL1        0.0245
     57 H          11.2386    2.1764    0.0000 H       1  UNL1        0.0245
     58 H          10.4577    2.5752    0.0000 H       1  UNL1        0.0245
     59 H           9.6729    3.1541    0.0000 H       1  UNL1        0.0391
     60 H           9.0545    3.7757    0.0000 H       1  UNL1        0.0391
     61 H           8.4329    3.1573    0.0000 H       1  UNL1        0.0391
     62 H           2.8617   -3.1557    0.0000 H       1  UNL1        0.1219
     63 H           2.3121   -1.4966    0.0000 H       1  UNL1        0.0388
     64 H           1.4643   -1.7203    0.0000 H       1  UNL1        0.0388
     65 H           1.6879   -2.5681    0.0000 H       1  UNL1        0.0388
@<TRIPOS>BOND
     1     1    12    1
     2     1    15    1
     3     1    24    1
     4    22     2    1
     5     2    25    1
     6     2    62    1
     7     3     4    1
     8     3     7    1
     9     3     9    1
    10     3    12    1
    11     4     5    1
    12     4    10    1
    13     4    26    1
    14     5     6    1
    15     5    16    1
    16     5    27    1
    17     6     8    1
    18     6    11    1
    19     6    28    1
    20     7    13    1
    21     7    15    1
    22     7    29    1
    23     8    14    1
    24     8    18    1
    25     8    20    1
    26     9    11    1
    27     9    30    1
    28     9    31    1
    29    10    13    1
    30    10    32    1
    31    10    33    1
    32    11    34    1
    33    11    35    1
    34    12    36    1
    35    12    37    1
    36    13    38    1
    37    13    39    1
    38    14    17    1
    39    14    19    1
    40    14    40    1
    41    15    23    1
    42    15    41    1
    43    16    17    1
    44    16    42    1
    45    16    43    1
    46    17    44    1
    47    17    45    1
    48    18    21    1
    49    18    46    1
    50    18    47    1
    51    19    22    1
    52    19    48    1
    53    19    49    1
    54    20    50    1
    55    20    51    1
    56    20    52    1
    57    21    22    1
    58    21    53    1
    59    21    54    1
    60    22    55    1
    61    23    56    1
    62    23    57    1
    63    23    58    1
    64    24    59    1
    65    24    60    1
    66    24    61    1
    67    25    63    1
    68    25    64    1
    69    25    65    1
