@<TRIPOS>MOLECULE
IMPHY012673
 24 24 0 0 0
SMALL
GASTEIGER

@<TRIPOS>ATOM
      1 O           5.9062    1.5835    0.0000 O.3     2  PRO2       -0.4793
      2 O           4.2690   -0.8644    0.0000 O.2     1  GLY1       -0.2742
      3 OXT         5.3710   -0.0638    0.0000 O.2     2  PRO2       -0.2489
      4 N           3.4030    0.6356    0.0000 N.am    2  PRO2       -0.2870
      5 N           2.5369   -1.8644    0.0000 N.3     1  GLY1       -0.3225
      6 CA          4.2120    1.2234    0.0000 C.3     2  PRO2        0.1228
      7 CB          3.9030    2.1744    0.0000 C.3     2  PRO2       -0.0225
      8 CG          2.9030    2.1744    0.0000 C.3     2  PRO2       -0.0349
      9 CD          2.5939    1.2234    0.0000 C.3     2  PRO2        0.0156
     10 C           3.4030   -0.3644    0.0000 C.2     1  GLY1        0.2299
     11 C           5.1630    0.9143    0.0000 C.2     2  PRO2        0.3255
     12 CA          2.5369   -0.8644    0.0000 C.3     1  GLY1        0.0710
     13 HA          4.3090    0.6110    0.0000 H       2  PRO2        0.0616
     14 HB1         4.5094    2.3033    0.0000 H       2  PRO2        0.0289
     15 HB2         3.8382    2.7910    0.0000 H       2  PRO2        0.0289
     16 HG1         2.9678    2.7910    0.0000 H       2  PRO2        0.0281
     17 HG2         2.2965    2.3033    0.0000 H       2  PRO2        0.0281
     18 HD1         2.0276    1.4755    0.0000 H       2  PRO2        0.0465
     19 HD2         2.2839    0.6864    0.0000 H       2  PRO2        0.0465
     20 HA1         2.3249   -0.2818    0.0000 H       1  GLY1        0.0518
     21 HA2         1.9264   -0.9721    0.0000 H       1  GLY1        0.0518
     22 H           6.4958    1.3919    0.0000 H       2  PRO2        0.2951
     23 H1          2.0000   -2.1744    0.0000 H       1  GLY1        0.1186
     24 H2          3.0739   -2.1744    0.0000 H       1  GLY1        0.1186
@<TRIPOS>BOND
     1     1    11    1
     2     1    22    1
     3     2    10    2
     4     3    11    2
     5     4     6    1
     6     4     9    1
     7     4    10   am
     8     5    12    1
     9     5    23    1
    10     5    24    1
    11     6     7    1
    12     6    11    1
    13     6    13    1
    14     7     8    1
    15     7    14    1
    16     7    15    1
    17     8     9    1
    18     8    16    1
    19     8    17    1
    20     9    18    1
    21     9    19    1
    22    10    12    1
    23    12    20    1
    24    12    21    1
