@<TRIPOS>MOLECULE
IMPHY004404
 42 44 0 0 0
SMALL
GASTEIGER

@<TRIPOS>ATOM
      1 O           6.0682   -1.5600    0.0000 O.2     1  UNL1       -0.4620
      2 O          10.3984    1.9400    0.0000 O.3     1  UNL1       -0.5065
      3 O           6.0682    1.4400    0.0000 O.2     1  UNL1       -0.2864
      4 O           2.5381   -1.5842    0.0000 O.3     1  UNL1       -0.5066
      5 C           7.8003    0.4400    0.0000 C.ar    1  UNL1       -0.0108
      6 C           9.5323    0.4400    0.0000 C.ar    1  UNL1       -0.0017
      7 C           6.9343   -0.0600    0.0000 C.ar    1  UNL1        0.0643
      8 C          10.3984   -0.0600    0.0000 C.3     1  UNL1       -0.0058
      9 C           8.6663   -0.0600    0.0000 C.ar    1  UNL1       -0.0469
     10 C           5.2022   -0.0600    0.0000 C.ar    1  UNL1        0.0648
     11 C           6.0682    0.4400    0.0000 C.ar    1  UNL1        0.2001
     12 C           9.5323    1.4400    0.0000 C.ar    1  UNL1        0.1203
     13 C           7.8003    1.4400    0.0000 C.ar    1  UNL1       -0.0504
     14 C           5.2022   -1.0600    0.0000 C.ar    1  UNL1        0.1419
     15 C           8.6663    1.9400    0.0000 C.ar    1  UNL1       -0.0193
     16 C           6.9343   -1.0600    0.0000 C.ar    1  UNL1        0.1038
     17 C          10.3984   -1.0600    0.0000 C.2     1  UNL1       -0.0809
     18 C           4.3083    0.4747    0.0000 C.ar    1  UNL1       -0.0439
     19 C          11.2644   -1.5600    0.0000 C.2     1  UNL1       -0.0793
     20 C           4.3083   -1.5947    0.0000 C.ar    1  UNL1        0.0228
     21 C           3.4022   -0.0392    0.0000 C.ar    1  UNL1       -0.0193
     22 C           3.4022   -1.0808    0.0000 C.ar    1  UNL1        0.1204
     23 C          11.2644   -2.5600    0.0000 C.3     1  UNL1       -0.0440
     24 C          12.1304   -1.0600    0.0000 C.3     1  UNL1       -0.0440
     25 H          11.0090   -0.1677    0.0000 H       1  UNL1        0.0357
     26 H          10.6104    0.5226    0.0000 H       1  UNL1        0.0357
     27 H           8.6663   -0.6800    0.0000 H       1  UNL1        0.0628
     28 H           7.2634    1.7500    0.0000 H       1  UNL1        0.0625
     29 H           8.6663    2.5600    0.0000 H       1  UNL1        0.0654
     30 H           7.4712   -1.3700    0.0000 H       1  UNL1        0.1037
     31 H           9.8614   -1.3700    0.0000 H       1  UNL1        0.0575
     32 H           4.3154    1.0946    0.0000 H       1  UNL1        0.0627
     33 H           4.3154   -2.2146    0.0000 H       1  UNL1        0.0691
     34 H           2.8665    0.2729    0.0000 H       1  UNL1        0.0654
     35 H          10.6444   -2.5600    0.0000 H       1  UNL1        0.0274
     36 H          12.4404   -1.5969    0.0000 H       1  UNL1        0.0274
     37 H          12.6674   -0.7500    0.0000 H       1  UNL1        0.0274
     38 H          11.8204   -0.5231    0.0000 H       1  UNL1        0.0274
     39 H          11.2644   -3.1800    0.0000 H       1  UNL1        0.0274
     40 H          11.8844   -2.5600    0.0000 H       1  UNL1        0.0274
     41 H          10.3984    2.5600    0.0000 H       1  UNL1        0.2921
     42 H           2.0000   -1.2762    0.0000 H       1  UNL1        0.2921
@<TRIPOS>BOND
     1     1    14   ar
     2     1    16   ar
     3     2    12    1
     4     2    41    1
     5     3    11    2
     6     4    22    1
     7     4    42    1
     8     5     7    1
     9     5     9   ar
    10     5    13   ar
    11     6     8    1
    12     6     9   ar
    13     6    12   ar
    14     7    11   ar
    15     7    16   ar
    16     8    17    1
    17     8    25    1
    18     8    26    1
    19     9    27    1
    20    10    11   ar
    21    10    14   ar
    22    10    18   ar
    23    12    15   ar
    24    13    15   ar
    25    13    28    1
    26    14    20   ar
    27    15    29    1
    28    16    30    1
    29    17    19    2
    30    17    31    1
    31    18    21   ar
    32    18    32    1
    33    19    23    1
    34    19    24    1
    35    20    22   ar
    36    20    33    1
    37    21    22   ar
    38    21    34    1
    39    23    35    1
    40    23    39    1
    41    23    40    1
    42    24    36    1
    43    24    37    1
    44    24    38    1
