@<TRIPOS>MOLECULE
IMPHY012074
 45 46 0 0 0
SMALL
GASTEIGER

@<TRIPOS>ATOM
      1 O           6.8671   -0.5000    0.0000 O.3     1  UNL1       -0.3174
      2 O           6.0010    1.0000    0.0000 O.3     1  UNL1       -0.3404
      3 O           5.1350   -0.5000    0.0000 O.3     1  UNL1       -0.3404
      4 O           8.5991    0.5000    0.0000 O.3     1  UNL1       -0.3841
      5 O           6.8671   -2.5000    0.0000 O.3     1  UNL1       -0.3841
      6 O           8.5991    2.5000    0.0000 O.3     1  UNL1       -0.3864
      7 O           5.1350   -3.5000    0.0000 O.3     1  UNL1       -0.3864
      8 O           6.8671    3.5000    0.0000 O.3     1  UNL1       -0.3865
      9 O           3.4030   -2.5000    0.0000 O.3     1  UNL1       -0.3865
     10 O           5.1350    3.5000    0.0000 O.3     1  UNL1       -0.3924
     11 O           2.5369   -1.0000    0.0000 O.3     1  UNL1       -0.3924
     12 C           6.8671    0.5000    0.0000 C.3     1  UNL1        0.1909
     13 C           6.0010   -1.0000    0.0000 C.3     1  UNL1        0.1909
     14 C           7.7331    1.0000    0.0000 C.3     1  UNL1        0.1342
     15 C           6.0010   -2.0000    0.0000 C.3     1  UNL1        0.1342
     16 C           7.7331    2.0000    0.0000 C.3     1  UNL1        0.1141
     17 C           5.1350   -2.5000    0.0000 C.3     1  UNL1        0.1141
     18 C           6.8671    2.5000    0.0000 C.3     1  UNL1        0.1119
     19 C           4.2690   -2.0000    0.0000 C.3     1  UNL1        0.1119
     20 C           6.0010    2.0000    0.0000 C.3     1  UNL1        0.1130
     21 C           4.2690   -1.0000    0.0000 C.3     1  UNL1        0.1130
     22 C           5.1350    2.5000    0.0000 C.3     1  UNL1        0.0730
     23 C           3.4030   -0.5000    0.0000 C.3     1  UNL1        0.0730
     24 H           7.4040    0.1900    0.0000 H       1  UNL1        0.0938
     25 H           6.0010   -0.3800    0.0000 H       1  UNL1        0.0938
     26 H           8.2700    1.3100    0.0000 H       1  UNL1        0.0671
     27 H           6.0010   -2.6200    0.0000 H       1  UNL1        0.0671
     28 H           7.7331    2.6200    0.0000 H       1  UNL1        0.0648
     29 H           4.5981   -2.8100    0.0000 H       1  UNL1        0.0648
     30 H           7.4040    2.8100    0.0000 H       1  UNL1        0.0647
     31 H           4.2690   -2.6200    0.0000 H       1  UNL1        0.0647
     32 H           5.4641    1.6900    0.0000 H       1  UNL1        0.0647
     33 H           4.2690   -0.3800    0.0000 H       1  UNL1        0.0647
     34 H           4.5244    2.6077    0.0000 H       1  UNL1        0.0584
     35 H           4.9230    1.9174    0.0000 H       1  UNL1        0.0584
     36 H           3.8015   -0.0251    0.0000 H       1  UNL1        0.0584
     37 H           3.0044   -0.0251    0.0000 H       1  UNL1        0.0584
     38 H           9.1360    0.8100    0.0000 H       1  UNL1        0.2101
     39 H           6.8671   -3.1200    0.0000 H       1  UNL1        0.2101
     40 H           8.5991    3.1200    0.0000 H       1  UNL1        0.2100
     41 H           4.5981   -3.8100    0.0000 H       1  UNL1        0.2100
     42 H           7.4040    3.8100    0.0000 H       1  UNL1        0.2100
     43 H           3.4030   -3.1200    0.0000 H       1  UNL1        0.2100
     44 H           4.5981    3.8100    0.0000 H       1  UNL1        0.2095
     45 H           2.0000   -0.6900    0.0000 H       1  UNL1        0.2095
@<TRIPOS>BOND
     1    12     1    1
     2    13     1    1
     3     2    12    1
     4     2    20    1
     5     3    13    1
     6     3    21    1
     7    14     4    1
     8     4    38    1
     9    15     5    1
    10     5    39    1
    11    16     6    1
    12     6    40    1
    13    17     7    1
    14     7    41    1
    15    18     8    1
    16     8    42    1
    17    19     9    1
    18     9    43    1
    19    10    22    1
    20    10    44    1
    21    11    23    1
    22    11    45    1
    23    12    14    1
    24    12    24    1
    25    13    15    1
    26    13    25    1
    27    14    16    1
    28    14    26    1
    29    15    17    1
    30    15    27    1
    31    16    18    1
    32    16    28    1
    33    17    19    1
    34    17    29    1
    35    18    20    1
    36    18    30    1
    37    19    21    1
    38    19    31    1
    39    20    22    1
    40    20    32    1
    41    21    23    1
    42    21    33    1
    43    22    34    1
    44    22    35    1
    45    23    36    1
    46    23    37    1
