@<TRIPOS>MOLECULE
IMPHY016549
 50 49 0 0 0
SMALL
GASTEIGER

@<TRIPOS>ATOM
      1 O           5.4641    0.7500    0.0000 O.3     1  UNL1       -0.4646
      2 O           6.3301   -0.7500    0.0000 O.2     1  UNL1       -0.2509
      3 C          10.6603    0.7500    0.0000 C.3     1  UNL1       -0.0531
      4 C          11.5263    0.2500    0.0000 C.3     1  UNL1       -0.0531
      5 C           9.7942    0.2500    0.0000 C.3     1  UNL1       -0.0530
      6 C          12.3923    0.7500    0.0000 C.3     1  UNL1       -0.0531
      7 C          13.2583    0.2500    0.0000 C.3     1  UNL1       -0.0531
      8 C           8.9282    0.7500    0.0000 C.3     1  UNL1       -0.0526
      9 C          14.1244    0.7500    0.0000 C.3     1  UNL1       -0.0533
     10 C           8.0622    0.2500    0.0000 C.3     1  UNL1       -0.0430
     11 C          14.9904    0.2500    0.0000 C.3     1  UNL1       -0.0559
     12 C           7.1962    0.7500    0.0000 C.3     1  UNL1        0.0449
     13 C          15.8564    0.7500    0.0000 C.3     1  UNL1       -0.0653
     14 C           6.3301    0.2500    0.0000 C.2     1  UNL1        0.3071
     15 C           4.5981    0.2500    0.0000 C.3     1  UNL1        0.0924
     16 C           3.7320    0.7500    0.0000 C.3     1  UNL1       -0.0188
     17 C           2.8660    0.2500    0.0000 C.3     1  UNL1       -0.0528
     18 C           2.0000    0.7500    0.0000 C.3     1  UNL1       -0.0652
     19 H          11.0588    1.2250    0.0000 H       1  UNL1        0.0265
     20 H          10.2617    1.2250    0.0000 H       1  UNL1        0.0265
     21 H          11.1278   -0.2249    0.0000 H       1  UNL1        0.0265
     22 H          11.9248   -0.2249    0.0000 H       1  UNL1        0.0265
     23 H           9.3957   -0.2249    0.0000 H       1  UNL1        0.0265
     24 H          10.1928   -0.2249    0.0000 H       1  UNL1        0.0265
     25 H          12.7908    1.2250    0.0000 H       1  UNL1        0.0265
     26 H          11.9938    1.2250    0.0000 H       1  UNL1        0.0265
     27 H           9.3267    1.2250    0.0000 H       1  UNL1        0.0265
     28 H           8.5297    1.2250    0.0000 H       1  UNL1        0.0265
     29 H          12.8598   -0.2249    0.0000 H       1  UNL1        0.0265
     30 H          13.6569   -0.2249    0.0000 H       1  UNL1        0.0265
     31 H          14.5229    1.2250    0.0000 H       1  UNL1        0.0265
     32 H          13.7258    1.2250    0.0000 H       1  UNL1        0.0265
     33 H           7.6636   -0.2249    0.0000 H       1  UNL1        0.0270
     34 H           8.4607   -0.2249    0.0000 H       1  UNL1        0.0270
     35 H          14.5919   -0.2249    0.0000 H       1  UNL1        0.0263
     36 H          15.3889   -0.2249    0.0000 H       1  UNL1        0.0263
     37 H           7.5947    1.2250    0.0000 H       1  UNL1        0.0377
     38 H           6.7976    1.2250    0.0000 H       1  UNL1        0.0377
     39 H          16.1664    0.2131    0.0000 H       1  UNL1        0.0230
     40 H          16.3933    1.0600    0.0000 H       1  UNL1        0.0230
     41 H          15.5464    1.2869    0.0000 H       1  UNL1        0.0230
     42 H           4.1306    1.2250    0.0000 H       1  UNL1        0.0298
     43 H           3.3335    1.2250    0.0000 H       1  UNL1        0.0298
     44 H           4.1996   -0.2249    0.0000 H       1  UNL1        0.0697
     45 H           4.9966   -0.2249    0.0000 H       1  UNL1        0.0697
     46 H           2.4675   -0.2249    0.0000 H       1  UNL1        0.0264
     47 H           3.2646   -0.2249    0.0000 H       1  UNL1        0.0264
     48 H           2.3100    1.2869    0.0000 H       1  UNL1        0.0230
     49 H           1.4631    1.0600    0.0000 H       1  UNL1        0.0230
     50 H           1.6900    0.2131    0.0000 H       1  UNL1        0.0230
@<TRIPOS>BOND
     1     1    14    1
     2     1    15    1
     3     2    14    2
     4     3     4    1
     5     3     5    1
     6     3    19    1
     7     3    20    1
     8     4     6    1
     9     4    21    1
    10     4    22    1
    11     5     8    1
    12     5    23    1
    13     5    24    1
    14     6     7    1
    15     6    25    1
    16     6    26    1
    17     7     9    1
    18     7    29    1
    19     7    30    1
    20     8    10    1
    21     8    27    1
    22     8    28    1
    23     9    11    1
    24     9    31    1
    25     9    32    1
    26    10    12    1
    27    10    33    1
    28    10    34    1
    29    11    13    1
    30    11    35    1
    31    11    36    1
    32    12    14    1
    33    12    37    1
    34    12    38    1
    35    13    39    1
    36    13    40    1
    37    13    41    1
    38    15    16    1
    39    15    44    1
    40    15    45    1
    41    16    17    1
    42    16    42    1
    43    16    43    1
    44    17    18    1
    45    17    46    1
    46    17    47    1
    47    18    48    1
    48    18    49    1
    49    18    50    1
