@<TRIPOS>MOLECULE
IMPHY014268
 38 40 0 0 0
SMALL
GASTEIGER

@<TRIPOS>ATOM
      1 O           3.7230   -0.5579    0.0000 O.3     1  UNL1       -0.4569
      2 O           7.3840    1.5481    0.0000 O.3     1  UNL1       -0.3885
      3 O           2.0000   -0.1258    0.0000 O.2     1  UNL1       -0.2453
      4 C           6.3796   -0.0503    0.0000 C.3     1  UNL1        0.0009
      5 C           5.4786   -0.4842    0.0000 C.3     1  UNL1        0.0232
      6 C           6.6021    0.9246    0.0000 C.3     1  UNL1        0.0671
      7 C           4.5777   -0.0503    0.0000 C.3     1  UNL1        0.1171
      8 C           4.3551    0.9246    0.0000 C.3     1  UNL1        0.0281
      9 C           5.9786    1.7065    0.0000 C.3     1  UNL1       -0.0233
     10 C           7.0647   -0.7706    0.0000 C.3     1  UNL1       -0.0284
     11 C           4.9786    1.7065    0.0000 C.3     1  UNL1       -0.0400
     12 C           5.6146   -1.4689    0.0000 C.2     1  UNL1       -0.0696
     13 C           6.5929   -1.6456    0.0000 C.2     1  UNL1       -0.0843
     14 C           7.5770    0.7021    0.0000 C.3     1  UNL1       -0.0358
     15 C           3.3648    1.0112    0.0000 C.2     1  UNL1        0.0361
     16 C           2.9749    0.0968    0.0000 C.2     1  UNL1        0.3353
     17 C           4.8930   -2.1612    0.0000 C.3     1  UNL1       -0.0434
     18 C           2.8504    1.8687    0.0000 C.2     1  UNL1       -0.0883
     19 H           7.1993    0.1748    0.0000 H       1  UNL1        0.0338
     20 H           4.7916   -0.9847    0.0000 H       1  UNL1        0.0385
     21 H           4.6147   -0.8995    0.0000 H       1  UNL1        0.0746
     22 H           4.0200    1.7058    0.0000 H       1  UNL1        0.0387
     23 H           6.5372    1.9755    0.0000 H       1  UNL1        0.0293
     24 H           5.8407    2.3109    0.0000 H       1  UNL1        0.0293
     25 H           7.5765   -1.1206    0.0000 H       1  UNL1        0.0311
     26 H           7.4666   -0.2984    0.0000 H       1  UNL1        0.0311
     27 H           5.1166    2.3109    0.0000 H       1  UNL1        0.0273
     28 H           4.4200    1.9755    0.0000 H       1  UNL1        0.0273
     29 H           6.8619   -2.2042    0.0000 H       1  UNL1        0.0572
     30 H           7.4391    0.0977    0.0000 H       1  UNL1        0.0257
     31 H           8.1815    0.5642    0.0000 H       1  UNL1        0.0257
     32 H           7.7150    1.3066    0.0000 H       1  UNL1        0.0257
     33 H           4.4638   -1.7138    0.0000 H       1  UNL1        0.0274
     34 H           4.4456   -2.5904    0.0000 H       1  UNL1        0.0274
     35 H           5.3223   -2.6086    0.0000 H       1  UNL1        0.0274
     36 H           7.2916    2.1612    0.0000 H       1  UNL1        0.2102
     37 H           3.1514    2.4108    0.0000 H       1  UNL1        0.0540
     38 H           2.2305    1.8584    0.0000 H       1  UNL1        0.0540
@<TRIPOS>BOND
     1     1     7    1
     2     1    16    1
     3     6     2    1
     4     2    36    1
     5     3    16    2
     6     4     5    1
     7     4     6    1
     8     4    10    1
     9     4    19    1
    10     5     7    1
    11     5    12    1
    12     5    20    1
    13     6     9    1
    14     6    14    1
    15     7     8    1
    16     7    21    1
    17     8    11    1
    18     8    15    1
    19     8    22    1
    20     9    11    1
    21     9    23    1
    22     9    24    1
    23    10    13    1
    24    10    25    1
    25    10    26    1
    26    11    27    1
    27    11    28    1
    28    12    13    2
    29    12    17    1
    30    13    29    1
    31    14    30    1
    32    14    31    1
    33    14    32    1
    34    15    16    1
    35    15    18    2
    36    17    33    1
    37    17    34    1
    38    17    35    1
    39    18    37    1
    40    18    38    1
