@<TRIPOS>MOLECULE
IMPHY015650
 33 33 0 0 0
SMALL
GASTEIGER

@<TRIPOS>ATOM
      1 O           3.8660    2.0000    0.0000 O.2     1  UNL1       -0.2845
      2 O           5.5981    3.0000    0.0000 O.2     1  UNL1       -0.2923
      3 C           3.0000   -1.5000    0.0000 C.3     1  UNL1       -0.0099
      4 C           3.0000   -2.5000    0.0000 C.3     1  UNL1       -0.0436
      5 C           3.8660   -3.0000    0.0000 C.3     1  UNL1       -0.0486
      6 C           3.8660   -1.0000    0.0000 C.2     1  UNL1       -0.0426
      7 C           4.7320   -2.5000    0.0000 C.3     1  UNL1       -0.0314
      8 C           4.7320   -1.5000    0.0000 C.2     1  UNL1       -0.0689
      9 C           2.0000   -1.5000    0.0000 C.3     1  UNL1       -0.0558
     10 C           2.5000   -0.6340    0.0000 C.3     1  UNL1       -0.0558
     11 C           3.8660    0.0000    0.0000 C.2     1  UNL1       -0.0544
     12 C           5.5981   -1.0000    0.0000 C.3     1  UNL1       -0.0432
     13 C           4.7320    0.5000    0.0000 C.2     1  UNL1       -0.0114
     14 C           4.7320    1.5000    0.0000 C.2     1  UNL1        0.2178
     15 C           5.5981    2.0000    0.0000 C.2     1  UNL1        0.1895
     16 H           2.3894   -2.3923    0.0000 H       1  UNL1        0.0274
     17 H           2.7880   -3.0826    0.0000 H       1  UNL1        0.0274
     18 H           3.4675   -3.4750    0.0000 H       1  UNL1        0.0269
     19 H           4.2646   -3.4750    0.0000 H       1  UNL1        0.0269
     20 H           4.9441   -3.0826    0.0000 H       1  UNL1        0.0310
     21 H           5.3426   -2.3923    0.0000 H       1  UNL1        0.0310
     22 H           2.0000   -0.8800    0.0000 H       1  UNL1        0.0238
     23 H           1.3800   -1.5000    0.0000 H       1  UNL1        0.0238
     24 H           2.0000   -2.1200    0.0000 H       1  UNL1        0.0238
     25 H           3.0369   -0.3240    0.0000 H       1  UNL1        0.0238
     26 H           2.1900   -0.0970    0.0000 H       1  UNL1        0.0238
     27 H           1.9631   -0.9440    0.0000 H       1  UNL1        0.0238
     28 H           3.3291    0.3100    0.0000 H       1  UNL1        0.0622
     29 H           5.9081   -1.5369    0.0000 H       1  UNL1        0.0275
     30 H           6.1350   -0.6900    0.0000 H       1  UNL1        0.0275
     31 H           5.2881   -0.4631    0.0000 H       1  UNL1        0.0275
     32 H           5.2690    0.1900    0.0000 H       1  UNL1        0.0657
     33 H           6.1350    1.6900    0.0000 H       1  UNL1        0.1116
@<TRIPOS>BOND
     1     1    14    2
     2     2    15    2
     3     3     4    1
     4     3     6    1
     5     3     9    1
     6     3    10    1
     7     4     5    1
     8     4    16    1
     9     4    17    1
    10     5     7    1
    11     5    18    1
    12     5    19    1
    13     6     8    2
    14     6    11    1
    15     7     8    1
    16     7    20    1
    17     7    21    1
    18     8    12    1
    19     9    22    1
    20     9    23    1
    21     9    24    1
    22    10    25    1
    23    10    26    1
    24    10    27    1
    25    11    13    2
    26    11    28    1
    27    12    29    1
    28    12    30    1
    29    12    31    1
    30    13    14    1
    31    13    32    1
    32    14    15    1
    33    15    33    1
