@<TRIPOS>MOLECULE
IMPHY013259
 77 83 0 0 0
SMALL
GASTEIGER

@<TRIPOS>ATOM
      1 O           8.0355    3.8579    0.0000 O.3     1  UNL1       -0.3877
      2 O           9.7908   -1.3242    0.0000 O.3     1  UNL1       -0.3365
      3 O          11.6575   -0.2464    0.0000 O.3     1  UNL1       -0.3366
      4 O           3.1083    2.5571    0.0000 O.3     1  UNL1       -0.4571
      5 O          12.6532   -1.8813    0.0000 O.3     1  UNL1       -0.3465
      6 O           9.8602   -2.3739    0.0000 O.3     1  UNL1       -0.3589
      7 O           9.8371   -3.4939    0.0000 O.3     1  UNL1       -0.3742
      8 O           2.0000    3.9525    0.0000 O.2     1  UNL1       -0.2456
      9 C           7.1656    3.3646    0.0000 C.3     1  UNL1        0.0751
     10 C           6.2596    2.8508    0.0000 C.3     1  UNL1        0.0036
     11 C           8.0596    2.8300    0.0000 C.3     1  UNL1       -0.0077
     12 C           8.0596    1.8300    0.0000 C.3     1  UNL1       -0.0264
     13 C           8.9256    1.3300    0.0000 C.3     1  UNL1       -0.0054
     14 C           5.4972    3.5515    0.0000 C.3     1  UNL1       -0.0081
     15 C           6.2596    1.8091    0.0000 C.3     1  UNL1       -0.0442
     16 C           7.1656    1.2953    0.0000 C.3     1  UNL1       -0.0485
     17 C           6.9555    4.3785    0.0000 C.3     1  UNL1       -0.0226
     18 C           8.9256    3.3300    0.0000 C.3     1  UNL1       -0.0436
     19 C           5.9265    4.4938    0.0000 C.3     1  UNL1       -0.0432
     20 C           9.7916    1.8300    0.0000 C.2     1  UNL1       -0.0647
     21 C           8.9095    0.2884    0.0000 C.3     1  UNL1       -0.0144
     22 C           9.7916    2.8300    0.0000 C.3     1  UNL1       -0.0308
     23 C           5.3897    2.3575    0.0000 C.3     1  UNL1       -0.0564
     24 C           8.0596    0.8300    0.0000 C.3     1  UNL1       -0.0555
     25 C           4.5172    3.3528    0.0000 C.2     1  UNL1       -0.0222
     26 C           9.8076   -0.2393    0.0000 C.3     1  UNL1        0.0927
     27 C          10.7096    0.2815    0.0000 C.3     1  UNL1        0.1065
     28 C          10.7016    1.3231    0.0000 C.2     1  UNL1       -0.0533
     29 C           4.1018    2.4432    0.0000 C.3     1  UNL1        0.1147
     30 C           3.7804    4.0290    0.0000 C.2     1  UNL1        0.0252
     31 C          10.7263   -1.8739    0.0000 C.3     1  UNL1        0.2471
     32 C          11.6659   -1.3314    0.0000 C.3     1  UNL1        0.2170
     33 C          10.7088   -3.0039    0.0000 C.3     1  UNL1        0.1190
     34 C           2.9097    3.5372    0.0000 C.2     1  UNL1        0.3323
     35 C          11.6832   -3.5765    0.0000 C.3     1  UNL1        0.0023
     36 C          12.6620   -3.0115    0.0000 C.3     1  UNL1        0.0534
     37 C           9.8255   -4.4938    0.0000 C.3     1  UNL1        0.0370
     38 H           8.0661    3.6799    0.0000 H       1  UNL1        0.0332
     39 H           8.7957    2.2550    0.0000 H       1  UNL1        0.0313
     40 H           5.1114    4.0368    0.0000 H       1  UNL1        0.0353
     41 H           5.6487    1.9152    0.0000 H       1  UNL1        0.0272
     42 H           6.0505    1.2254    0.0000 H       1  UNL1        0.0272
     43 H           6.7720    0.8163    0.0000 H       1  UNL1        0.0268
     44 H           7.5702    0.8255    0.0000 H       1  UNL1        0.0268
     45 H           7.5725    4.4398    0.0000 H       1  UNL1        0.0293
     46 H           6.9594    4.9985    0.0000 H       1  UNL1        0.0293
     47 H           9.3241    3.8049    0.0000 H       1  UNL1        0.0272
     48 H           8.5271    3.8049    0.0000 H       1  UNL1        0.0272
     49 H           6.0599    5.0993    0.0000 H       1  UNL1        0.0272
     50 H           5.3384    4.6901    0.0000 H       1  UNL1        0.0272
     51 H           8.3004    0.4039    0.0000 H       1  UNL1        0.0300
     52 H           8.6915   -0.2920    0.0000 H       1  UNL1        0.0300
     53 H          10.4022    2.7223    0.0000 H       1  UNL1        0.0310
     54 H          10.0037    3.4126    0.0000 H       1  UNL1        0.0310
     55 H           5.0838    2.8968    0.0000 H       1  UNL1        0.0236
     56 H           4.8504    2.0516    0.0000 H       1  UNL1        0.0236
     57 H           5.6956    1.8182    0.0000 H       1  UNL1        0.0236
     58 H           7.7496    1.3669    0.0000 H       1  UNL1        0.0238
     59 H           7.5226    0.5200    0.0000 H       1  UNL1        0.0238
     60 H           8.3696    0.2930    0.0000 H       1  UNL1        0.0238
     61 H           9.0666   -0.6558    0.0000 H       1  UNL1        0.0626
     62 H           8.0402    4.4779    0.0000 H       1  UNL1        0.2102
     63 H          11.4408    0.7150    0.0000 H       1  UNL1        0.0667
     64 H          11.2349    1.6393    0.0000 H       1  UNL1        0.0598
     65 H           3.9672    1.8380    0.0000 H       1  UNL1        0.0746
     66 H           4.6896    2.2460    0.0000 H       1  UNL1        0.0746
     67 H           3.8510    4.6449    0.0000 H       1  UNL1        0.0689
     68 H          12.3971   -0.8979    0.0000 H       1  UNL1        0.0967
     69 H          10.1761   -2.6867    0.0000 H       1  UNL1        0.0652
     70 H          11.2822   -4.0494    0.0000 H       1  UNL1        0.0314
     71 H          12.0805   -4.0525    0.0000 H       1  UNL1        0.0314
     72 H           9.3233   -2.0639    0.0000 H       1  UNL1        0.2130
     73 H          12.8755   -3.5935    0.0000 H       1  UNL1        0.0562
     74 H          13.2720   -2.9007    0.0000 H       1  UNL1        0.0562
     75 H           9.2056   -4.4866    0.0000 H       1  UNL1        0.0524
     76 H           9.8184   -5.1138    0.0000 H       1  UNL1        0.0524
     77 H          10.4455   -4.5010    0.0000 H       1  UNL1        0.0524
@<TRIPOS>BOND
     1     9     1    1
     2     1    62    1
     3     2    26    1
     4     2    31    1
     5     3    27    1
     6     3    32    1
     7     4    29    1
     8     4    34    1
     9     5    32    1
    10     5    36    1
    11    31     6    1
    12     6    72    1
    13    33     7    1
    14     7    37    1
    15     8    34    2
    16     9    10    1
    17     9    11    1
    18     9    17    1
    19    10    14    1
    20    10    15    1
    21    10    23    1
    22    11    12    1
    23    11    18    1
    24    11    38    1
    25    12    13    1
    26    12    16    1
    27    12    39    1
    28    13    20    1
    29    13    21    1
    30    13    24    1
    31    14    19    1
    32    14    25    1
    33    14    40    1
    34    15    16    1
    35    15    41    1
    36    15    42    1
    37    16    43    1
    38    16    44    1
    39    17    19    1
    40    17    45    1
    41    17    46    1
    42    18    22    1
    43    18    47    1
    44    18    48    1
    45    19    49    1
    46    19    50    1
    47    20    22    1
    48    20    28    2
    49    21    26    1
    50    21    51    1
    51    21    52    1
    52    22    53    1
    53    22    54    1
    54    23    55    1
    55    23    56    1
    56    23    57    1
    57    24    58    1
    58    24    59    1
    59    24    60    1
    60    25    29    1
    61    25    30    2
    62    26    27    1
    63    26    61    1
    64    27    28    1
    65    27    63    1
    66    28    64    1
    67    29    65    1
    68    29    66    1
    69    30    34    1
    70    30    67    1
    71    31    32    1
    72    31    33    1
    73    32    68    1
    74    33    35    1
    75    33    69    1
    76    35    36    1
    77    35    70    1
    78    35    71    1
    79    36    73    1
    80    36    74    1
    81    37    75    1
    82    37    76    1
    83    37    77    1
