@<TRIPOS>MOLECULE
IMPHY009138
 33 34 0 0 0
SMALL
GASTEIGER

@<TRIPOS>ATOM
      1 O           5.4641   -1.9050    0.0000 O.3     1  UNL1       -0.4935
      2 O           5.4641    2.0950    0.0000 O.3     1  UNL1       -0.5060
      3 O           8.9942    1.1192    0.0000 O.2     1  UNL1       -0.4911
      4 O           7.2125    2.1296    0.0000 O.2     1  UNL1       -0.2832
      5 O           7.2125   -1.9396    0.0000 O.2     1  UNL1       -0.2870
      6 O           2.8660   -0.4050    0.0000 O.3     1  UNL1       -0.4644
      7 O           3.7320   -1.9050    0.0000 O.2     1  UNL1       -0.2448
      8 C           6.3301   -0.4050    0.0000 C.ar    1  UNL1        0.0786
      9 C           6.3301    0.5950    0.0000 C.ar    1  UNL1        0.0810
     10 C           5.4641   -0.9050    0.0000 C.ar    1  UNL1        0.1457
     11 C           4.5981   -0.4050    0.0000 C.ar    1  UNL1        0.1047
     12 C           5.4641    1.0950    0.0000 C.ar    1  UNL1        0.1295
     13 C           7.2241    1.1297    0.0000 C.2     1  UNL1        0.2317
     14 C           7.2241   -0.9397    0.0000 C.2     1  UNL1        0.1940
     15 C           4.5981    0.5950    0.0000 C.ar    1  UNL1       -0.0019
     16 C           8.1301    0.6158    0.0000 C.2     1  UNL1        0.1709
     17 C           8.1301   -0.4258    0.0000 C.2     1  UNL1        0.0313
     18 C           3.7320   -0.9050    0.0000 C.2     1  UNL1        0.3426
     19 C           4.5981   -2.4050    0.0000 C.3     1  UNL1        0.0788
     20 C           9.8622    0.6225    0.0000 C.3     1  UNL1        0.0790
     21 C           2.0000   -0.9050    0.0000 C.3     1  UNL1        0.0820
     22 H           4.0611    0.9050    0.0000 H       1  UNL1        0.0663
     23 H           8.6659   -0.7379    0.0000 H       1  UNL1        0.0694
     24 H           4.9272    2.4050    0.0000 H       1  UNL1        0.2922
     25 H           4.2881   -1.8681    0.0000 H       1  UNL1        0.0660
     26 H           4.0611   -2.7150    0.0000 H       1  UNL1        0.0660
     27 H           4.9081   -2.9419    0.0000 H       1  UNL1        0.0660
     28 H           9.5542    0.0844    0.0000 H       1  UNL1        0.0660
     29 H          10.4003    0.3146    0.0000 H       1  UNL1        0.0660
     30 H          10.1701    1.1606    0.0000 H       1  UNL1        0.0660
     31 H           1.6900   -0.3681    0.0000 H       1  UNL1        0.0661
     32 H           1.4631   -1.2150    0.0000 H       1  UNL1        0.0661
     33 H           2.3100   -1.4419    0.0000 H       1  UNL1        0.0661
@<TRIPOS>BOND
     1     1    10    1
     2     1    19    1
     3     2    12    1
     4     2    24    1
     5     3    16    1
     6     3    20    1
     7     4    13    2
     8     5    14    2
     9     6    18    1
    10     6    21    1
    11     7    18    2
    12     8     9   ar
    13     8    10   ar
    14     8    14    1
    15     9    12   ar
    16     9    13    1
    17    10    11   ar
    18    11    15   ar
    19    11    18    1
    20    12    15   ar
    21    13    16    1
    22    14    17    1
    23    15    22    1
    24    16    17    2
    25    17    23    1
    26    19    25    1
    27    19    26    1
    28    19    27    1
    29    20    28    1
    30    20    29    1
    31    20    30    1
    32    21    31    1
    33    21    32    1
    34    21    33    1
