@<TRIPOS>MOLECULE
IMPHY006991
 12 11 0 0 0
SMALL
GASTEIGER

@<TRIPOS>ATOM
      1 S           2.8660    0.2500    0.0000 S.3     1  UNL1       -0.0845
      2 S           5.4641   -0.2500    0.0000 S.3     1  UNL1       -0.0845
      3 S           3.7320   -0.2500    0.0000 S.3     1  UNL1       -0.0132
      4 S           4.5981    0.2500    0.0000 S.3     1  UNL1       -0.0132
      5 C           6.3301    0.2500    0.0000 C.3     1  UNL1       -0.0070
      6 C           2.0000   -0.2500    0.0000 C.3     1  UNL1       -0.0070
      7 H           6.6401   -0.2869    0.0000 H       1  UNL1        0.0349
      8 H           6.8671    0.5600    0.0000 H       1  UNL1        0.0349
      9 H           6.0201    0.7869    0.0000 H       1  UNL1        0.0349
     10 H           1.6900    0.2869    0.0000 H       1  UNL1        0.0349
     11 H           1.4631   -0.5600    0.0000 H       1  UNL1        0.0349
     12 H           2.3100   -0.7869    0.0000 H       1  UNL1        0.0349
@<TRIPOS>BOND
     1     1     3    1
     2     1     6    1
     3     2     4    1
     4     2     5    1
     5     3     4    1
     6     5     7    1
     7     5     8    1
     8     5     9    1
     9     6    10    1
    10     6    11    1
    11     6    12    1
