@<TRIPOS>MOLECULE
IMPHY012266
 58 57 0 0 0
SMALL
GASTEIGER

@<TRIPOS>ATOM
      1 O           4.2690   -0.5950    0.0000 O.3     1  UNL1       -0.3895
      2 O           2.5369    0.4050    0.0000 O.3     1  UNL1       -0.3925
      3 C          10.3312    0.9050    0.0000 C.3     1  UNL1       -0.0531
      4 C          11.1972    0.4050    0.0000 C.3     1  UNL1       -0.0531
      5 C           9.4651    0.4050    0.0000 C.3     1  UNL1       -0.0531
      6 C          12.0632    0.9050    0.0000 C.3     1  UNL1       -0.0531
      7 C           8.5991    0.9050    0.0000 C.3     1  UNL1       -0.0531
      8 C          12.9292    0.4050    0.0000 C.3     1  UNL1       -0.0531
      9 C           7.7331    0.4050    0.0000 C.3     1  UNL1       -0.0531
     10 C          13.7953    0.9050    0.0000 C.3     1  UNL1       -0.0531
     11 C           6.8671    0.9050    0.0000 C.3     1  UNL1       -0.0530
     12 C          14.6613    0.4050    0.0000 C.3     1  UNL1       -0.0531
     13 C           6.0010    0.4050    0.0000 C.3     1  UNL1       -0.0506
     14 C          15.5273    0.9050    0.0000 C.3     1  UNL1       -0.0531
     15 C           5.1350    0.9050    0.0000 C.3     1  UNL1       -0.0247
     16 C          16.3933    0.4050    0.0000 C.3     1  UNL1       -0.0533
     17 C           4.2690    0.4050    0.0000 C.3     1  UNL1        0.0782
     18 C          17.2594    0.9050    0.0000 C.3     1  UNL1       -0.0559
     19 C           3.4030    0.9050    0.0000 C.3     1  UNL1        0.0701
     20 C          18.1254    0.4050    0.0000 C.3     1  UNL1       -0.0653
     21 H          10.7297    1.3800    0.0000 H       1  UNL1        0.0265
     22 H           9.9326    1.3800    0.0000 H       1  UNL1        0.0265
     23 H          10.7987   -0.0699    0.0000 H       1  UNL1        0.0265
     24 H          11.5957   -0.0699    0.0000 H       1  UNL1        0.0265
     25 H           9.0666   -0.0699    0.0000 H       1  UNL1        0.0265
     26 H           9.8637   -0.0699    0.0000 H       1  UNL1        0.0265
     27 H          12.4617    1.3800    0.0000 H       1  UNL1        0.0265
     28 H          11.6647    1.3800    0.0000 H       1  UNL1        0.0265
     29 H           8.9976    1.3800    0.0000 H       1  UNL1        0.0265
     30 H           8.2006    1.3800    0.0000 H       1  UNL1        0.0265
     31 H          12.5307   -0.0699    0.0000 H       1  UNL1        0.0265
     32 H          13.3278   -0.0699    0.0000 H       1  UNL1        0.0265
     33 H           7.3346   -0.0699    0.0000 H       1  UNL1        0.0265
     34 H           8.1316   -0.0699    0.0000 H       1  UNL1        0.0265
     35 H          14.1938    1.3800    0.0000 H       1  UNL1        0.0265
     36 H          13.3967    1.3800    0.0000 H       1  UNL1        0.0265
     37 H           7.2656    1.3800    0.0000 H       1  UNL1        0.0265
     38 H           6.4685    1.3800    0.0000 H       1  UNL1        0.0265
     39 H          14.2628   -0.0699    0.0000 H       1  UNL1        0.0265
     40 H          15.0598   -0.0699    0.0000 H       1  UNL1        0.0265
     41 H           5.6025   -0.0699    0.0000 H       1  UNL1        0.0266
     42 H           6.3996   -0.0699    0.0000 H       1  UNL1        0.0266
     43 H          15.9258    1.3800    0.0000 H       1  UNL1        0.0265
     44 H          15.1288    1.3800    0.0000 H       1  UNL1        0.0265
     45 H           5.5335    1.3800    0.0000 H       1  UNL1        0.0291
     46 H           4.7365    1.3800    0.0000 H       1  UNL1        0.0291
     47 H          15.9948   -0.0699    0.0000 H       1  UNL1        0.0265
     48 H          16.7919   -0.0699    0.0000 H       1  UNL1        0.0265
     49 H           4.8059    0.0950    0.0000 H       1  UNL1        0.0616
     50 H          17.6579    1.3800    0.0000 H       1  UNL1        0.0263
     51 H          16.8608    1.3800    0.0000 H       1  UNL1        0.0263
     52 H           3.8015    1.3800    0.0000 H       1  UNL1        0.0583
     53 H           3.0044    1.3800    0.0000 H       1  UNL1        0.0583
     54 H          17.8154   -0.1319    0.0000 H       1  UNL1        0.0230
     55 H          18.6623    0.0950    0.0000 H       1  UNL1        0.0230
     56 H          18.4354    0.9419    0.0000 H       1  UNL1        0.0230
     57 H           3.7320   -0.9050    0.0000 H       1  UNL1        0.2099
     58 H           2.0000    0.7150    0.0000 H       1  UNL1        0.2095
@<TRIPOS>BOND
     1     1    17    1
     2     1    57    1
     3     2    19    1
     4     2    58    1
     5     3     4    1
     6     3     5    1
     7     3    21    1
     8     3    22    1
     9     4     6    1
    10     4    23    1
    11     4    24    1
    12     5     7    1
    13     5    25    1
    14     5    26    1
    15     6     8    1
    16     6    27    1
    17     6    28    1
    18     7     9    1
    19     7    29    1
    20     7    30    1
    21     8    10    1
    22     8    31    1
    23     8    32    1
    24     9    11    1
    25     9    33    1
    26     9    34    1
    27    10    12    1
    28    10    35    1
    29    10    36    1
    30    11    13    1
    31    11    37    1
    32    11    38    1
    33    12    14    1
    34    12    39    1
    35    12    40    1
    36    13    15    1
    37    13    41    1
    38    13    42    1
    39    14    16    1
    40    14    43    1
    41    14    44    1
    42    15    17    1
    43    15    45    1
    44    15    46    1
    45    16    18    1
    46    16    47    1
    47    16    48    1
    48    17    19    1
    49    17    49    1
    50    18    20    1
    51    18    50    1
    52    18    51    1
    53    19    52    1
    54    19    53    1
    55    20    54    1
    56    20    55    1
    57    20    56    1
