@<TRIPOS>MOLECULE
IMPHY016403
 22 22 0 0 0
SMALL
GASTEIGER

@<TRIPOS>ATOM
      1 O           3.7320   -1.8450    0.0000 O.3     1  UNL1       -0.5068
      2 C           3.7320    1.1550    0.0000 C.ar    1  UNL1       -0.0444
      3 C           4.5981    0.6550    0.0000 C.ar    1  UNL1       -0.0438
      4 C           2.8660    0.6550    0.0000 C.ar    1  UNL1       -0.0438
      5 C           4.5981   -0.3450    0.0000 C.ar    1  UNL1       -0.0170
      6 C           2.8660   -0.3450    0.0000 C.ar    1  UNL1       -0.0170
      7 C           3.7320    2.1550    0.0000 C.3     1  UNL1       -0.0392
      8 C           3.7320   -0.8450    0.0000 C.ar    1  UNL1        0.1174
      9 C           5.4641    1.1550    0.0000 C.3     1  UNL1       -0.0393
     10 C           2.0000    1.1550    0.0000 C.3     1  UNL1       -0.0393
     11 H           5.1350   -0.6550    0.0000 H       1  UNL1        0.0657
     12 H           2.3291   -0.6550    0.0000 H       1  UNL1        0.0657
     13 H           4.3520    2.1550    0.0000 H       1  UNL1        0.0278
     14 H           3.7320    2.7750    0.0000 H       1  UNL1        0.0278
     15 H           3.1120    2.1550    0.0000 H       1  UNL1        0.0278
     16 H           5.7741    0.6181    0.0000 H       1  UNL1        0.0278
     17 H           6.0010    1.4650    0.0000 H       1  UNL1        0.0278
     18 H           5.1541    1.6919    0.0000 H       1  UNL1        0.0278
     19 H           2.3100    1.6919    0.0000 H       1  UNL1        0.0278
     20 H           1.4631    1.4650    0.0000 H       1  UNL1        0.0278
     21 H           1.6900    0.6181    0.0000 H       1  UNL1        0.0278
     22 H           3.1951   -2.1550    0.0000 H       1  UNL1        0.2921
@<TRIPOS>BOND
     1     1     8    1
     2     1    22    1
     3     2     3   ar
     4     2     4   ar
     5     2     7    1
     6     3     5   ar
     7     3     9    1
     8     4     6   ar
     9     4    10    1
    10     5     8   ar
    11     5    11    1
    12     6     8   ar
    13     6    12    1
    14     7    13    1
    15     7    14    1
    16     7    15    1
    17     9    16    1
    18     9    17    1
    19     9    18    1
    20    10    19    1
    21    10    20    1
    22    10    21    1
