@<TRIPOS>MOLECULE
IMPHY014223
 49 51 0 0 0
SMALL
GASTEIGER

@<TRIPOS>ATOM
      1 O           7.6995    2.0696    0.0000 O.3     1  UNL1       -0.3457
      2 O           5.0746    2.4015    0.0000 O.3     1  UNL1       -0.3847
      3 O           5.6960    4.3025    0.0000 O.3     1  UNL1       -0.3864
      4 O           7.6530    4.7150    0.0000 O.3     1  UNL1       -0.3865
      5 O           9.6565    2.4821    0.0000 O.3     1  UNL1       -0.3924
      6 N           6.4103    0.9129    0.0000 N.ar    1  UNL1       -0.2855
      7 N           6.4103   -0.6966    0.0000 N.ar    1  UNL1       -0.2306
      8 N           4.5981    1.1082    0.0000 N.ar    1  UNL1       -0.2159
      9 N           4.5981   -1.8918    0.0000 N.pl3   1  UNL1       -0.3237
     10 N           3.7320   -0.3918    0.0000 N.ar    1  UNL1       -0.2186
     11 C           6.0531    2.6077    0.0000 C.3     1  UNL1        0.1285
     12 C           6.3638    3.5582    0.0000 C.3     1  UNL1        0.1135
     13 C           6.7210    1.8634    0.0000 C.3     1  UNL1        0.1667
     14 C           7.3423    3.7644    0.0000 C.3     1  UNL1        0.1119
     15 C           8.0102    3.0201    0.0000 C.3     1  UNL1        0.1125
     16 C           8.9887    3.2264    0.0000 C.3     1  UNL1        0.0730
     17 C           5.4641    0.6082    0.0000 C.ar    1  UNL1        0.1674
     18 C           6.9939    0.1082    0.0000 C.ar    1  UNL1        0.1004
     19 C           5.4641   -0.3918    0.0000 C.ar    1  UNL1        0.1475
     20 C           4.5981   -0.8918    0.0000 C.ar    1  UNL1        0.1500
     21 C           3.7320    0.6082    0.0000 C.ar    1  UNL1        0.1205
     22 C           3.7320   -2.3918    0.0000 C.3     1  UNL1        0.0290
     23 C           3.7320   -3.3918    0.0000 C.2     1  UNL1       -0.0684
     24 C           2.8660   -3.8918    0.0000 C.2     1  UNL1       -0.0782
     25 C           2.8660   -4.8918    0.0000 C.3     1  UNL1       -0.0440
     26 C           2.0000   -3.3918    0.0000 C.3     1  UNL1       -0.0440
     27 H           5.6391    3.0692    0.0000 H       1  UNL1        0.0665
     28 H           6.5564    4.1476    0.0000 H       1  UNL1        0.0647
     29 H           6.1143    1.7356    0.0000 H       1  UNL1        0.0866
     30 H           7.9490    3.8923    0.0000 H       1  UNL1        0.0647
     31 H           8.4242    2.5587    0.0000 H       1  UNL1        0.0647
     32 H           9.5150    3.5540    0.0000 H       1  UNL1        0.0584
     33 H           8.7574    3.8016    0.0000 H       1  UNL1        0.0584
     34 H           4.6606    2.8630    0.0000 H       1  UNL1        0.2101
     35 H           5.8886    4.8918    0.0000 H       1  UNL1        0.2100
     36 H           8.2596    4.8428    0.0000 H       1  UNL1        0.2100
     37 H           7.6139    0.1082    0.0000 H       1  UNL1        0.1030
     38 H          10.2632    2.6099    0.0000 H       1  UNL1        0.2095
     39 H           3.1951    0.9182    0.0000 H       1  UNL1        0.1048
     40 H           5.1350   -2.2018    0.0000 H       1  UNL1        0.1478
     41 H           3.5200   -1.8092    0.0000 H       1  UNL1        0.0505
     42 H           3.1215   -2.4995    0.0000 H       1  UNL1        0.0505
     43 H           4.2690   -3.7018    0.0000 H       1  UNL1        0.0587
     44 H           2.2460   -4.8918    0.0000 H       1  UNL1        0.0274
     45 H           2.8660   -5.5118    0.0000 H       1  UNL1        0.0274
     46 H           3.4860   -4.8918    0.0000 H       1  UNL1        0.0274
     47 H           2.3100   -2.8549    0.0000 H       1  UNL1        0.0274
     48 H           1.4631   -3.0819    0.0000 H       1  UNL1        0.0274
     49 H           1.6900   -3.9288    0.0000 H       1  UNL1        0.0274
@<TRIPOS>BOND
     1     1    13    1
     2     1    15    1
     3    11     2    1
     4     2    34    1
     5    12     3    1
     6     3    35    1
     7    14     4    1
     8     4    36    1
     9     5    16    1
    10     5    38    1
    11    13     6    1
    12     6    17   ar
    13     6    18   ar
    14     7    18   ar
    15     7    19   ar
    16     8    17   ar
    17     8    21   ar
    18     9    20    1
    19     9    22    1
    20     9    40    1
    21    10    20   ar
    22    10    21   ar
    23    11    12    1
    24    11    13    1
    25    11    27    1
    26    12    14    1
    27    12    28    1
    28    13    29    1
    29    14    15    1
    30    14    30    1
    31    15    16    1
    32    15    31    1
    33    16    32    1
    34    16    33    1
    35    17    19   ar
    36    18    37    1
    37    19    20   ar
    38    21    39    1
    39    22    23    1
    40    22    41    1
    41    22    42    1
    42    23    24    2
    43    23    43    1
    44    24    25    1
    45    24    26    1
    46    25    44    1
    47    25    45    1
    48    25    46    1
    49    26    47    1
    50    26    48    1
    51    26    49    1
