@<TRIPOS>MOLECULE
IMPHY013046
 41 44 0 0 0
SMALL
GASTEIGER

@<TRIPOS>ATOM
      1 O          10.4263   -1.4920    0.0000 O.3     1  UNL1       -0.4815
      2 O           6.0682    2.0427    0.0000 O.2     1  UNL1       -0.4620
      3 O           6.9343   -1.4573    0.0000 O.3     1  UNL1       -0.5060
      4 O           6.0682   -0.9573    0.0000 O.2     1  UNL1       -0.2864
      5 O           2.5381    2.0668    0.0000 O.3     1  UNL1       -0.5066
      6 C          11.3324   -0.9781    0.0000 C.3     1  UNL1        0.1235
      7 C           9.5323    0.0427    0.0000 C.ar    1  UNL1        0.0173
      8 C           9.5323   -0.9573    0.0000 C.ar    1  UNL1        0.1323
      9 C          11.3324    0.0635    0.0000 C.2     1  UNL1       -0.0409
     10 C          12.3324   -0.9820    0.0000 C.3     1  UNL1       -0.0215
     11 C          11.8290   -1.8461    0.0000 C.3     1  UNL1       -0.0215
     12 C          10.4263    0.5773    0.0000 C.2     1  UNL1       -0.0513
     13 C           7.8003    0.0427    0.0000 C.ar    1  UNL1        0.0310
     14 C           8.6663    0.5427    0.0000 C.ar    1  UNL1       -0.0397
     15 C           8.6663   -1.4573    0.0000 C.ar    1  UNL1        0.0228
     16 C           7.8003   -0.9573    0.0000 C.ar    1  UNL1        0.1283
     17 C           6.9343    0.5427    0.0000 C.ar    1  UNL1        0.0678
     18 C           6.0682    0.0427    0.0000 C.ar    1  UNL1        0.2003
     19 C           5.2022    0.5427    0.0000 C.ar    1  UNL1        0.0648
     20 C           5.2022    1.5427    0.0000 C.ar    1  UNL1        0.1419
     21 C           6.9343    1.5427    0.0000 C.ar    1  UNL1        0.1040
     22 C           4.3083    0.0080    0.0000 C.ar    1  UNL1       -0.0439
     23 C           4.3083    2.0773    0.0000 C.ar    1  UNL1        0.0228
     24 C           3.4022    0.5219    0.0000 C.ar    1  UNL1       -0.0193
     25 C           3.4022    1.5635    0.0000 C.ar    1  UNL1        0.1204
     26 H          11.8681    0.3756    0.0000 H       1  UNL1        0.0611
     27 H          12.3300   -1.6020    0.0000 H       1  UNL1        0.0271
     28 H          12.9524   -0.9844    0.0000 H       1  UNL1        0.0271
     29 H          12.3347   -0.3620    0.0000 H       1  UNL1        0.0271
     30 H          11.2909   -2.1540    0.0000 H       1  UNL1        0.0271
     31 H          12.1369   -2.3842    0.0000 H       1  UNL1        0.0271
     32 H          12.3671   -1.5382    0.0000 H       1  UNL1        0.0271
     33 H          10.4191    1.1973    0.0000 H       1  UNL1        0.0623
     34 H           8.6663    1.1627    0.0000 H       1  UNL1        0.0632
     35 H           8.6663   -2.0773    0.0000 H       1  UNL1        0.0691
     36 H           7.4712    1.8527    0.0000 H       1  UNL1        0.1037
     37 H           4.3154   -0.6120    0.0000 H       1  UNL1        0.0627
     38 H           4.3154    2.6973    0.0000 H       1  UNL1        0.0691
     39 H           6.9343   -2.0773    0.0000 H       1  UNL1        0.2922
     40 H           2.8665    0.2098    0.0000 H       1  UNL1        0.0654
     41 H           2.0000    1.7589    0.0000 H       1  UNL1        0.2921
@<TRIPOS>BOND
     1     1     6    1
     2     1     8    1
     3     2    20   ar
     4     2    21   ar
     5     3    16    1
     6     3    39    1
     7     4    18    2
     8     5    25    1
     9     5    41    1
    10     6     9    1
    11     6    10    1
    12     6    11    1
    13     7     8   ar
    14     7    12    1
    15     7    14   ar
    16     8    15   ar
    17     9    12    2
    18     9    26    1
    19    10    27    1
    20    10    28    1
    21    10    29    1
    22    11    30    1
    23    11    31    1
    24    11    32    1
    25    12    33    1
    26    13    14   ar
    27    13    16   ar
    28    13    17    1
    29    14    34    1
    30    15    16   ar
    31    15    35    1
    32    17    18   ar
    33    17    21   ar
    34    18    19   ar
    35    19    20   ar
    36    19    22   ar
    37    20    23   ar
    38    21    36    1
    39    22    24   ar
    40    22    37    1
    41    23    25   ar
    42    23    38    1
    43    24    25   ar
    44    24    40    1
