@<TRIPOS>MOLECULE
IMPHY016216
 22 22 0 0 0
SMALL
GASTEIGER

@<TRIPOS>ATOM
      1 O           4.2320   -1.9330    0.0000 O.3     1  UNL1       -0.3717
      2 C           3.7320   -1.0670    0.0000 C.3     1  UNL1        0.0823
      3 C           2.8660   -0.5670    0.0000 C.3     1  UNL1       -0.0219
      4 C           2.8660    0.4330    0.0000 C.3     1  UNL1       -0.0417
      5 C           4.7320   -1.0670    0.0000 C.3     1  UNL1        0.0743
      6 C           2.0000    0.9330    0.0000 C.3     1  UNL1       -0.0532
      7 C           3.7320    0.9330    0.0000 C.3     1  UNL1       -0.0623
      8 C           2.0000    1.9330    0.0000 C.3     1  UNL1       -0.0650
      9 H           3.2936   -1.5054    0.0000 H       1  UNL1        0.0619
     10 H           2.2554   -0.4593    0.0000 H       1  UNL1        0.0293
     11 H           2.6540   -1.1496    0.0000 H       1  UNL1        0.0293
     12 H           2.8660    1.0530    0.0000 H       1  UNL1        0.0299
     13 H           5.3147   -1.2790    0.0000 H       1  UNL1        0.0586
     14 H           4.8397   -0.4564    0.0000 H       1  UNL1        0.0586
     15 H           1.3894    1.0407    0.0000 H       1  UNL1        0.0265
     16 H           1.7880    0.3504    0.0000 H       1  UNL1        0.0265
     17 H           4.0420    0.3961    0.0000 H       1  UNL1        0.0232
     18 H           4.2690    1.2430    0.0000 H       1  UNL1        0.0232
     19 H           3.4220    1.4700    0.0000 H       1  UNL1        0.0232
     20 H           2.6200    1.9330    0.0000 H       1  UNL1        0.0230
     21 H           2.0000    2.5530    0.0000 H       1  UNL1        0.0230
     22 H           1.3800    1.9330    0.0000 H       1  UNL1        0.0230
@<TRIPOS>BOND
     1     1     2    1
     2     1     5    1
     3     2     3    1
     4     2     5    1
     5     2     9    1
     6     3     4    1
     7     3    10    1
     8     3    11    1
     9     4     6    1
    10     4     7    1
    11     4    12    1
    12     5    13    1
    13     5    14    1
    14     6     8    1
    15     6    15    1
    16     6    16    1
    17     7    17    1
    18     7    18    1
    19     7    19    1
    20     8    20    1
    21     8    21    1
    22     8    22    1
