@<TRIPOS>MOLECULE
IMPHY005725
 85 88 0 0 0
SMALL
GASTEIGER

@<TRIPOS>ATOM
      1 O           6.8342    0.7501    0.0000 O.3     1  UNL1       -0.4567
      2 O           4.9665    0.7501    0.0000 O.3     1  UNL1       -0.4496
      3 O           8.6860    0.1304    0.0000 O.3     1  UNL1       -0.4607
      4 O           5.4444   -3.8575    0.0000 O.3     1  UNL1       -0.3883
      5 O           2.4217   -1.9831    0.0000 O.3     1  UNL1       -0.3875
      6 O           9.2820   -3.0115    0.0000 O.3     1  UNL1       -0.4570
      7 O           8.5614    0.8795    0.0000 O.2     1  UNL1       -0.2512
      8 O           6.5270    1.5016    0.0000 O.2     1  UNL1       -0.2449
      9 O           9.9692   -1.0329    0.0000 O.2     1  UNL1       -0.2512
     10 O          10.4650   -1.7464    0.0000 O.2     1  UNL1       -0.2511
     11 C           4.9994   -1.9077    0.0000 C.3     1  UNL1        0.0270
     12 C           7.0238   -0.9327    0.0000 C.3     1  UNL1        0.0524
     13 C           6.8013   -1.9077    0.0000 C.3     1  UNL1       -0.0035
     14 C           5.9003   -2.3415    0.0000 C.3     1  UNL1       -0.0334
     15 C           4.7768   -0.9327    0.0000 C.2     1  UNL1       -0.0156
     16 C           6.4004   -0.1509    0.0000 C.3     1  UNL1        0.1528
     17 C           4.1447   -2.4153    0.0000 C.3     1  UNL1       -0.0109
     18 C           5.4004   -0.1509    0.0000 C.3     1  UNL1        0.1627
     19 C           8.0143   -0.6104    0.0000 C.3     1  UNL1        0.1161
     20 C           5.2219   -2.8826    0.0000 C.3     1  UNL1        0.0700
     21 C           7.5538   -2.6278    0.0000 C.2     1  UNL1       -0.0327
     22 C           3.3966   -1.7606    0.0000 C.3     1  UNL1        0.0773
     23 C           3.7866   -0.8462    0.0000 C.2     1  UNL1       -0.0411
     24 C           8.7833   -1.3130    0.0000 C.3     1  UNL1        0.0262
     25 C           7.2464    0.0422    0.0000 C.3     1  UNL1       -0.0521
     26 C           8.5516   -2.3285    0.0000 C.3     1  UNL1        0.1275
     27 C           4.2470   -3.1051    0.0000 C.3     1  UNL1       -0.0355
     28 C           6.1774   -3.1774    0.0000 C.3     1  UNL1       -0.0355
     29 C           3.2722    0.0114    0.0000 C.3     1  UNL1       -0.0410
     30 C           7.3201   -3.6001    0.0000 C.2     1  UNL1       -0.0957
     31 C           7.6605    1.3134    0.0000 C.2     1  UNL1        0.3043
     32 C           5.5298    1.5763    0.0000 C.2     1  UNL1        0.3399
     33 C           9.6634   -0.0808    0.0000 C.2     1  UNL1        0.3042
     34 C          10.2387   -2.7204    0.0000 C.2     1  UNL1        0.3045
     35 C           7.5858    2.3106    0.0000 C.3     1  UNL1        0.0332
     36 C          10.3351    0.6601    0.0000 C.3     1  UNL1        0.0332
     37 C           5.0959    2.4773    0.0000 C.ar    1  UNL1        0.0590
     38 C          10.9691   -3.4034    0.0000 C.3     1  UNL1        0.0333
     39 C           5.6592    3.3035    0.0000 C.ar    1  UNL1       -0.0478
     40 C           4.0987    2.5520    0.0000 C.ar    1  UNL1       -0.0478
     41 C           5.2254    4.2045    0.0000 C.ar    1  UNL1       -0.0610
     42 C           3.6648    3.4530    0.0000 C.ar    1  UNL1       -0.0610
     43 C           4.2282    4.2792    0.0000 C.ar    1  UNL1       -0.0617
     44 H           6.6681   -2.7472    0.0000 H       1  UNL1        0.0355
     45 H           5.5138   -2.8263    0.0000 H       1  UNL1        0.0281
     46 H           6.2869   -2.8263    0.0000 H       1  UNL1        0.0281
     47 H           6.0705    0.3741    0.0000 H       1  UNL1        0.0782
     48 H           3.6896   -2.8364    0.0000 H       1  UNL1        0.0303
     49 H           4.5156   -2.9121    0.0000 H       1  UNL1        0.0303
     50 H           4.7842   -0.0815    0.0000 H       1  UNL1        0.0820
     51 H           7.6774   -0.0899    0.0000 H       1  UNL1        0.0742
     52 H           2.9991   -1.2848    0.0000 H       1  UNL1        0.0640
     53 H           9.3553   -1.5524    0.0000 H       1  UNL1        0.0340
     54 H           9.1170   -0.7905    0.0000 H       1  UNL1        0.0340
     55 H           7.8508   -0.0958    0.0000 H       1  UNL1        0.0238
     56 H           7.3843    0.6466    0.0000 H       1  UNL1        0.0238
     57 H           6.6419    0.1801    0.0000 H       1  UNL1        0.0238
     58 H           9.1444   -2.1469    0.0000 H       1  UNL1        0.0783
     59 H           4.1090   -2.5006    0.0000 H       1  UNL1        0.0257
     60 H           3.6425   -3.2431    0.0000 H       1  UNL1        0.0257
     61 H           4.3849   -3.7096    0.0000 H       1  UNL1        0.0257
     62 H           5.9947   -3.7698    0.0000 H       1  UNL1        0.0257
     63 H           6.7699   -3.3601    0.0000 H       1  UNL1        0.0257
     64 H           6.3602   -2.5849    0.0000 H       1  UNL1        0.0257
     65 H           3.8039    0.3303    0.0000 H       1  UNL1        0.0275
     66 H           2.9533    0.5431    0.0000 H       1  UNL1        0.0275
     67 H           2.7405   -0.3075    0.0000 H       1  UNL1        0.0275
     68 H           4.9899   -4.2792    0.0000 H       1  UNL1        0.2102
     69 H           6.7255   -3.7760    0.0000 H       1  UNL1        0.0536
     70 H           7.7696   -4.0271    0.0000 H       1  UNL1        0.0536
     71 H           2.0000   -1.5286    0.0000 H       1  UNL1        0.2102
     72 H           8.2040    2.3569    0.0000 H       1  UNL1        0.0342
     73 H           7.5394    2.9288    0.0000 H       1  UNL1        0.0342
     74 H           6.9675    2.2642    0.0000 H       1  UNL1        0.0342
     75 H          10.7944    0.2436    0.0000 H       1  UNL1        0.0342
     76 H          10.7515    1.1194    0.0000 H       1  UNL1        0.0342
     77 H           9.8758    1.0765    0.0000 H       1  UNL1        0.0342
     78 H          10.5456   -3.8563    0.0000 H       1  UNL1        0.0342
     79 H          11.4220   -3.8269    0.0000 H       1  UNL1        0.0342
     80 H          11.3925   -2.9506    0.0000 H       1  UNL1        0.0342
     81 H           6.2775    3.2572    0.0000 H       1  UNL1        0.0626
     82 H           3.7494    2.0398    0.0000 H       1  UNL1        0.0626
     83 H           5.5746    4.7168    0.0000 H       1  UNL1        0.0618
     84 H           3.0466    3.4993    0.0000 H       1  UNL1        0.0618
     85 H           3.9592    4.8378    0.0000 H       1  UNL1        0.0618
@<TRIPOS>BOND
     1    16     1    1
     2     1    31    1
     3    18     2    1
     4     2    32    1
     5    19     3    1
     6     3    33    1
     7     4    20    1
     8     4    68    1
     9    22     5    1
    10     5    71    1
    11    26     6    1
    12     6    34    1
    13     7    31    2
    14     8    32    2
    15     9    33    2
    16    10    34    2
    17    11    14    1
    18    11    15    1
    19    11    17    1
    20    11    20    1
    21    12    13    1
    22    12    16    1
    23    12    19    1
    24    12    25    1
    25    13    14    1
    26    13    21    1
    27    13    44    1
    28    14    45    1
    29    14    46    1
    30    15    18    1
    31    15    23    2
    32    16    18    1
    33    16    47    1
    34    17    22    1
    35    17    48    1
    36    17    49    1
    37    18    50    1
    38    19    24    1
    39    19    51    1
    40    20    27    1
    41    20    28    1
    42    21    26    1
    43    21    30    2
    44    22    23    1
    45    22    52    1
    46    23    29    1
    47    24    26    1
    48    24    53    1
    49    24    54    1
    50    25    55    1
    51    25    56    1
    52    25    57    1
    53    26    58    1
    54    27    59    1
    55    27    60    1
    56    27    61    1
    57    28    62    1
    58    28    63    1
    59    28    64    1
    60    29    65    1
    61    29    66    1
    62    29    67    1
    63    30    69    1
    64    30    70    1
    65    31    35    1
    66    32    37    1
    67    33    36    1
    68    34    38    1
    69    35    72    1
    70    35    73    1
    71    35    74    1
    72    36    75    1
    73    36    76    1
    74    36    77    1
    75    37    39   ar
    76    37    40   ar
    77    38    78    1
    78    38    79    1
    79    38    80    1
    80    39    41   ar
    81    39    81    1
    82    40    42   ar
    83    40    82    1
    84    41    43   ar
    85    41    83    1
    86    42    43   ar
    87    42    84    1
    88    43    85    1
