@<TRIPOS>MOLECULE
IMPHY017095
 24 24 0 0 0
SMALL
GASTEIGER

@<TRIPOS>ATOM
      1 O           2.0000    1.0670    0.0000 O.2     1  UNL1       -0.2921
      2 C           3.7320    1.0670    0.0000 C.3     1  UNL1        0.0277
      3 C           4.5981    0.5670    0.0000 C.3     1  UNL1       -0.0372
      4 C           4.5981   -0.4330    0.0000 C.3     1  UNL1       -0.0307
      5 C           2.8660    0.5670    0.0000 C.2     1  UNL1        0.1616
      6 C           4.2320    1.9330    0.0000 C.3     1  UNL1       -0.0528
      7 C           3.2320    1.9330    0.0000 C.3     1  UNL1       -0.0528
      8 C           3.7320   -0.9330    0.0000 C.2     1  UNL1       -0.0693
      9 C           2.8660   -0.4330    0.0000 C.2     1  UNL1       -0.0197
     10 C           3.7320   -1.9330    0.0000 C.3     1  UNL1       -0.0434
     11 H           5.2087    0.4593    0.0000 H       1  UNL1        0.0278
     12 H           4.8101    1.1496    0.0000 H       1  UNL1        0.0278
     13 H           4.8101   -1.0156    0.0000 H       1  UNL1        0.0310
     14 H           5.2087   -0.3254    0.0000 H       1  UNL1        0.0310
     15 H           4.7690    1.6230    0.0000 H       1  UNL1        0.0239
     16 H           4.5420    2.4700    0.0000 H       1  UNL1        0.0239
     17 H           3.6951    2.2430    0.0000 H       1  UNL1        0.0239
     18 H           3.7690    2.2430    0.0000 H       1  UNL1        0.0239
     19 H           2.9220    2.4700    0.0000 H       1  UNL1        0.0239
     20 H           2.6951    1.6230    0.0000 H       1  UNL1        0.0239
     21 H           2.3291   -0.7430    0.0000 H       1  UNL1        0.0652
     22 H           3.1120   -1.9330    0.0000 H       1  UNL1        0.0274
     23 H           3.7320   -2.5530    0.0000 H       1  UNL1        0.0274
     24 H           4.3520   -1.9330    0.0000 H       1  UNL1        0.0274
@<TRIPOS>BOND
     1     1     5    2
     2     2     3    1
     3     2     5    1
     4     2     6    1
     5     2     7    1
     6     3     4    1
     7     3    11    1
     8     3    12    1
     9     4     8    1
    10     4    13    1
    11     4    14    1
    12     5     9    1
    13     6    15    1
    14     6    16    1
    15     6    17    1
    16     7    18    1
    17     7    19    1
    18     7    20    1
    19     8     9    2
    20     8    10    1
    21     9    21    1
    22    10    22    1
    23    10    23    1
    24    10    24    1
