@<TRIPOS>MOLECULE
IMPHY016967
 36 36 0 0 0
SMALL
GASTEIGER

@<TRIPOS>ATOM
      1 O           2.8090   -2.5829    0.0000 O.2     1  UNL1       -0.4708
      2 C           9.6382    1.7739    0.0000 C.3     1  UNL1       -0.0283
      3 C           8.6437    1.8784    0.0000 C.2     1  UNL1       -0.0814
      4 C          10.2260    2.5829    0.0000 C.3     1  UNL1       -0.0592
      5 C          10.0450    0.8603    0.0000 C.3     1  UNL1       -0.0592
      6 C           3.8968   -0.2350    0.0000 C.3     1  UNL1       -0.0062
      7 C           3.3090   -1.0441    0.0000 C.ar    1  UNL1       -0.0060
      8 C           8.0559    1.0694    0.0000 C.2     1  UNL1       -0.0652
      9 C           6.4736    0.3649    0.0000 C.2     1  UNL1       -0.0507
     10 C           4.8913   -0.3396    0.0000 C.2     1  UNL1       -0.0794
     11 C           7.0614    1.1739    0.0000 C.2     1  UNL1       -0.0591
     12 C           5.4791    0.4694    0.0000 C.2     1  UNL1       -0.0625
     13 C           2.3090   -1.0441    0.0000 C.ar    1  UNL1       -0.0205
     14 C           6.8804   -0.5486    0.0000 C.3     1  UNL1       -0.0397
     15 C           3.6180   -1.9951    0.0000 C.ar    1  UNL1        0.0951
     16 C           2.0000   -1.9951    0.0000 C.ar    1  UNL1        0.0920
     17 H           9.3861    2.3403    0.0000 H       1  UNL1        0.0338
     18 H           8.3916    2.4448    0.0000 H       1  UNL1        0.0575
     19 H          10.7276    2.2185    0.0000 H       1  UNL1        0.0235
     20 H          10.5905    3.0845    0.0000 H       1  UNL1        0.0235
     21 H           9.7244    2.9473    0.0000 H       1  UNL1        0.0235
     22 H           9.4786    0.6082    0.0000 H       1  UNL1        0.0235
     23 H          10.2972    0.2939    0.0000 H       1  UNL1        0.0235
     24 H          10.6114    1.1125    0.0000 H       1  UNL1        0.0235
     25 H           4.0677    0.3609    0.0000 H       1  UNL1        0.0357
     26 H           3.3396    0.0367    0.0000 H       1  UNL1        0.0357
     27 H           8.3081    0.5030    0.0000 H       1  UNL1        0.0615
     28 H           5.1435   -0.9060    0.0000 H       1  UNL1        0.0575
     29 H           6.8092    1.7403    0.0000 H       1  UNL1        0.0620
     30 H           5.2269    1.0358    0.0000 H       1  UNL1        0.0617
     31 H           1.9446   -0.5425    0.0000 H       1  UNL1        0.0652
     32 H           6.3140   -0.8008    0.0000 H       1  UNL1        0.0278
     33 H           7.1325   -1.1150    0.0000 H       1  UNL1        0.0278
     34 H           7.4468   -0.2965    0.0000 H       1  UNL1        0.0278
     35 H           4.2077   -2.1867    0.0000 H       1  UNL1        0.1032
     36 H           1.4103   -2.1867    0.0000 H       1  UNL1        0.1029
@<TRIPOS>BOND
     1     1    15   ar
     2     1    16   ar
     3     2     3    1
     4     2     4    1
     5     2     5    1
     6     2    17    1
     7     3     8    2
     8     3    18    1
     9     4    19    1
    10     4    20    1
    11     4    21    1
    12     5    22    1
    13     5    23    1
    14     5    24    1
    15     6     7    1
    16     6    10    1
    17     6    25    1
    18     6    26    1
    19     7    13   ar
    20     7    15   ar
    21     8    11    1
    22     8    27    1
    23     9    11    2
    24     9    12    1
    25     9    14    1
    26    10    12    2
    27    10    28    1
    28    11    29    1
    29    12    30    1
    30    13    16   ar
    31    13    31    1
    32    14    32    1
    33    14    33    1
    34    14    34    1
    35    15    35    1
    36    16    36    1
