@<TRIPOS>MOLECULE
IMPHY015467
 15 14 0 0 0
SMALL
GASTEIGER

@<TRIPOS>ATOM
      1 S           5.4641    0.7500    0.0000 S.3     1  UNL1       -0.1240
      2 O           3.7320    0.7500    0.0000 O.3     1  UNL1       -0.4539
      3 O           2.8660   -0.7500    0.0000 O.2     1  UNL1       -0.2511
      4 C           4.5981    0.2500    0.0000 C.3     1  UNL1        0.1379
      5 C           2.8660    0.2500    0.0000 C.2     1  UNL1        0.3047
      6 C           2.0000    0.7500    0.0000 C.3     1  UNL1        0.0333
      7 C           6.3301    0.2500    0.0000 C.3     1  UNL1       -0.0150
      8 H           4.1996   -0.2249    0.0000 H       1  UNL1        0.0816
      9 H           4.9966   -0.2249    0.0000 H       1  UNL1        0.0816
     10 H           2.3100    1.2869    0.0000 H       1  UNL1        0.0342
     11 H           1.4631    1.0600    0.0000 H       1  UNL1        0.0342
     12 H           1.6900    0.2131    0.0000 H       1  UNL1        0.0342
     13 H           6.0201   -0.2869    0.0000 H       1  UNL1        0.0342
     14 H           6.8671   -0.0600    0.0000 H       1  UNL1        0.0342
     15 H           6.6401    0.7869    0.0000 H       1  UNL1        0.0342
@<TRIPOS>BOND
     1     1     4    1
     2     1     7    1
     3     2     4    1
     4     2     5    1
     5     3     5    2
     6     4     8    1
     7     4     9    1
     8     5     6    1
     9     6    10    1
    10     6    11    1
    11     6    12    1
    12     7    13    1
    13     7    14    1
    14     7    15    1
