@<TRIPOS>MOLECULE
IMPHY006764
 82 85 0 0 0
SMALL
GASTEIGER

@<TRIPOS>ATOM
      1 O           2.0000   -0.6472    0.0000 O.3     1  UNL1       -0.3614
      2 O           6.6039    1.8100    0.0000 O.3     1  UNL1       -0.4603
      3 O           4.9884   -2.8120    0.0000 O.2     1  UNL1       -0.2937
      4 O          10.8462    2.3739    0.0000 O.3     1  UNL1       -0.3877
      5 O           7.4699   -2.6900    0.0000 O.3     1  UNL1       -0.4771
      6 O           5.7379   -2.6900    0.0000 O.2     1  UNL1       -0.2451
      7 O           4.8718    1.8100    0.0000 O.2     1  UNL1       -0.2512
      8 O          14.3948    1.7353    0.0000 O.3     1  UNL1       -0.4774
      9 O          13.6876    0.1542    0.0000 O.2     1  UNL1       -0.2455
     10 C           7.4699    0.3100    0.0000 C.3     1  UNL1        0.0366
     11 C           8.4161    0.6147    0.0000 C.3     1  UNL1       -0.0132
     12 C           6.6039    0.8100    0.0000 C.3     1  UNL1        0.1165
     13 C           4.0058   -0.6900    0.0000 C.3     1  UNL1        0.1317
     14 C           7.4699   -0.6900    0.0000 C.2     1  UNL1       -0.0274
     15 C           8.9997   -0.1900    0.0000 C.3     1  UNL1       -0.0276
     16 C           9.2262    1.2011    0.0000 C.3     1  UNL1       -0.0346
     17 C           3.1398   -0.1900    0.0000 C.3     1  UNL1        0.0719
     18 C           3.2262   -2.2563    0.0000 C.3     1  UNL1        0.0524
     19 C           5.7379    0.3100    0.0000 C.3     1  UNL1        0.0076
     20 C           4.8718   -1.1900    0.0000 C.3     1  UNL1        0.0057
     21 C           5.7379   -0.6900    0.0000 C.2     1  UNL1       -0.0487
     22 C           4.8594    0.5296    0.0000 C.3     1  UNL1       -0.0141
     23 C           8.4161   -0.9947    0.0000 C.2     1  UNL1       -0.0788
     24 C           7.4699    1.3100    0.0000 C.3     1  UNL1       -0.0516
     25 C           3.9933    1.0296    0.0000 C.3     1  UNL1       -0.0226
     26 C           8.1088    1.5663    0.0000 C.3     1  UNL1       -0.0581
     27 C           6.6039   -1.1900    0.0000 C.2     1  UNL1        0.0618
     28 C           4.2224   -2.1692    0.0000 C.2     1  UNL1        0.1732
     29 C          10.1390    0.7928    0.0000 C.3     1  UNL1       -0.0201
     30 C           9.1234    2.1958    0.0000 C.3     1  UNL1       -0.0618
     31 C           2.2559   -2.4982    0.0000 C.3     1  UNL1       -0.0506
     32 C           3.1564   -3.2539    0.0000 C.3     1  UNL1       -0.0506
     33 C          10.9490    1.3792    0.0000 C.3     1  UNL1        0.0744
     34 C           6.6039   -2.1900    0.0000 C.2     1  UNL1        0.3370
     35 C           5.7379    2.3100    0.0000 C.2     1  UNL1        0.3042
     36 C          11.8619    0.9709    0.0000 C.2     1  UNL1       -0.0462
     37 C           5.7379    3.3100    0.0000 C.3     1  UNL1        0.0332
     38 C          12.6719    1.5572    0.0000 C.2     1  UNL1        0.0318
     39 C          12.5691    2.5520    0.0000 C.3     1  UNL1       -0.0332
     40 C          13.5847    1.1489    0.0000 C.2     1  UNL1        0.3323
     41 H           6.0670    1.1200    0.0000 H       1  UNL1        0.0746
     42 H           9.4606   -0.6047    0.0000 H       1  UNL1        0.0313
     43 H           9.4606    0.2247    0.0000 H       1  UNL1        0.0313
     44 H           8.6602    1.4543    0.0000 H       1  UNL1        0.0305
     45 H           2.4037    0.2350    0.0000 H       1  UNL1        0.0606
     46 H           5.5258    0.8926    0.0000 H       1  UNL1        0.0346
     47 H           5.1273    0.2023    0.0000 H       1  UNL1        0.0346
     48 H           4.4733   -1.6650    0.0000 H       1  UNL1        0.0342
     49 H           5.2704   -1.6650    0.0000 H       1  UNL1        0.0342
     50 H           5.3774    0.1890    0.0000 H       1  UNL1        0.0298
     51 H           5.1848    1.0573    0.0000 H       1  UNL1        0.0298
     52 H           8.6087   -1.5840    0.0000 H       1  UNL1        0.0575
     53 H           8.0899    1.3100    0.0000 H       1  UNL1        0.0240
     54 H           7.4699    1.9300    0.0000 H       1  UNL1        0.0240
     55 H           6.8499    1.3100    0.0000 H       1  UNL1        0.0240
     56 H           4.3188    1.5573    0.0000 H       1  UNL1        0.0291
     57 H           3.4753    1.3702    0.0000 H       1  UNL1        0.0291
     58 H           8.6987    1.7569    0.0000 H       1  UNL1        0.0236
     59 H           7.9182    2.1563    0.0000 H       1  UNL1        0.0236
     60 H           7.5188    1.3758    0.0000 H       1  UNL1        0.0236
     61 H           9.7914    0.2794    0.0000 H       1  UNL1        0.0296
     62 H          10.5842    0.3613    0.0000 H       1  UNL1        0.0296
     63 H           9.7401    2.2596    0.0000 H       1  UNL1        0.0233
     64 H           9.0596    2.8125    0.0000 H       1  UNL1        0.0233
     65 H           8.5066    2.1321    0.0000 H       1  UNL1        0.0233
     66 H           2.5379   -3.2106    0.0000 H       1  UNL1        0.0240
     67 H           3.1132   -3.8724    0.0000 H       1  UNL1        0.0240
     68 H           3.7749   -3.2971    0.0000 H       1  UNL1        0.0240
     69 H           2.1059   -1.8966    0.0000 H       1  UNL1        0.0240
     70 H           1.6543   -2.6482    0.0000 H       1  UNL1        0.0240
     71 H           2.4059   -3.0998    0.0000 H       1  UNL1        0.0240
     72 H          10.3831    1.6323    0.0000 H       1  UNL1        0.0638
     73 H          11.9256    0.3542    0.0000 H       1  UNL1        0.0602
     74 H          11.3484    2.7374    0.0000 H       1  UNL1        0.2102
     75 H           7.4699   -3.3100    0.0000 H       1  UNL1        0.2954
     76 H           6.3579    3.3100    0.0000 H       1  UNL1        0.0342
     77 H           5.7379    3.9300    0.0000 H       1  UNL1        0.0342
     78 H           5.1179    3.3100    0.0000 H       1  UNL1        0.0342
     79 H          13.1858    2.6157    0.0000 H       1  UNL1        0.0280
     80 H          12.5054    3.1687    0.0000 H       1  UNL1        0.0280
     81 H          11.9524    2.4882    0.0000 H       1  UNL1        0.0280
     82 H          14.9607    1.4822    0.0000 H       1  UNL1        0.2954
@<TRIPOS>BOND
     1     1    13    1
     2     1    17    1
     3    12     2    1
     4     2    35    1
     5     3    28    2
     6    33     4    1
     7     4    74    1
     8     5    34    1
     9     5    75    1
    10     6    34    2
    11     7    35    2
    12     8    40    1
    13     8    82    1
    14     9    40    2
    15    10    11    1
    16    10    12    1
    17    10    14    1
    18    10    24    1
    19    11    15    1
    20    11    16    1
    21    11    26    1
    22    12    19    1
    23    12    41    1
    24    13    20    1
    25    13    22    1
    26    13    28    1
    27    14    23    2
    28    14    27    1
    29    15    23    1
    30    15    42    1
    31    15    43    1
    32    16    29    1
    33    16    30    1
    34    16    44    1
    35    17    18    1
    36    17    25    1
    37    17    45    1
    38    18    28    1
    39    18    31    1
    40    18    32    1
    41    19    21    1
    42    19    46    1
    43    19    47    1
    44    20    21    1
    45    20    48    1
    46    20    49    1
    47    21    27    2
    48    22    25    1
    49    22    50    1
    50    22    51    1
    51    23    52    1
    52    24    53    1
    53    24    54    1
    54    24    55    1
    55    25    56    1
    56    25    57    1
    57    26    58    1
    58    26    59    1
    59    26    60    1
    60    27    34    1
    61    29    33    1
    62    29    61    1
    63    29    62    1
    64    30    63    1
    65    30    64    1
    66    30    65    1
    67    31    69    1
    68    31    70    1
    69    31    71    1
    70    32    66    1
    71    32    67    1
    72    32    68    1
    73    33    36    1
    74    33    72    1
    75    35    37    1
    76    36    38    2
    77    36    73    1
    78    37    76    1
    79    37    77    1
    80    37    78    1
    81    38    39    1
    82    38    40    1
    83    39    79    1
    84    39    80    1
    85    39    81    1
