@<TRIPOS>MOLECULE
IMPHY002340
 32 36 0 0 0
SMALL
GASTEIGER

@<TRIPOS>ATOM
      1 C           3.0500   -0.9750    0.0000 C.3     1  UNL1        0.1821
      2 C           3.0500   -1.5750    0.0000 C.3     1  UNL1        0.1819
      3 C           3.5708   -1.8750    0.0000 C.3     1  UNL1        0.0307
      4 C           4.0917   -1.5750    0.0000 C.3     1  UNL1        0.0025
      5 C           4.0917   -0.9750    0.0000 C.3     1  UNL1        0.0026
      6 C           3.5708   -0.6750    0.0000 C.3     1  UNL1        0.0355
      7 C           4.6083   -1.8750    0.0000 C.3     1  UNL1        0.0001
      8 C           5.1292   -1.5750    0.0000 C.3     1  UNL1        0.0000
      9 C           5.1292   -0.9750    0.0000 C.3     1  UNL1        0.0000
     10 C           4.6083   -0.6750    0.0000 C.3     1  UNL1        0.0001
     11 C           5.6500   -0.6750    0.0000 C.3     1  UNL1        0.0000
     12 C           5.6500   -0.0750    0.0000 C.3     1  UNL1        0.0003
     13 C           5.1292    0.2250    0.0000 C.3     1  UNL1        0.0000
     14 C           4.6083   -0.0750    0.0000 C.3     1  UNL1        0.0000
     15 C           6.1667   -0.9750    0.0000 C.3     1  UNL1        0.0000
     16 C           6.6875   -0.6750    0.0000 C.3     1  UNL1        0.0000
     17 C           6.6875   -0.0750    0.0000 C.3     1  UNL1        0.0003
     18 C           6.1667    0.2250    0.0000 C.3     1  UNL1        0.0037
     19 C           3.2708   -2.3917    0.0000 C.3     1  UNL1        0.0026
     20 C           4.0917   -0.3750    0.0000 C.3     1  UNL1        0.0001
     21 C           5.1292   -0.3750    0.0000 C.3     1  UNL1        0.0000
     22 C           7.2083   -0.3750    0.0000 C.3     1  UNL1        0.0000
     23 C           5.6500   -1.2750    0.0000 C.3     1  UNL1        0.0000
     24 C           3.8708   -2.3917    0.0000 C.3     1  UNL1        0.0026
     25 C           7.2083    0.2250    0.0000 C.3     1  UNL1        0.0003
     26 C           7.2083    0.8250    0.0000 C.3     1  UNL1        0.0040
     27 C           6.1667    0.8250    0.0000 C.3     1  UNL1        0.0183
     28 C           5.6458    1.1250    0.0000 C.2     1  UNL1       -0.0442
     29 C           5.1250    0.8250    0.0000 C.3     1  UNL1        0.0263
     30 C           5.6458    1.7250    0.0000 C.2     1  UNL1       -0.0091
     31 O           2.5292   -1.8750    0.0000 O.3     1  UNL1       -0.2204
     32 O           2.5292   -0.6750    0.0000 O.3     1  UNL1       -0.2204
@<TRIPOS>BOND
     1     1     2    1
     2     1    32    1
     3     2     3    1
     4     2    31    1
     5     3    19    1
     6     3    24    1
     7     4     3    1
     8     4     5    1
     9     4     7    1
    10     5     6    1
    11     5    20    1
    12     6     1    1
    13     7     8    1
    14     8     9    1
    15     9    10    1
    16     9    21    1
    17    10     5    1
    18    10    14    1
    19    11    12    1
    20    11    15    1
    21    11    23    1
    22    11     9    1
    23    12    13    1
    24    14    13    1
    25    15    16    1
    26    16    17    1
    27    17    22    1
    28    17    25    1
    29    18    17    1
    30    18    12    1
    31    18    27    1
    32    25    26    1
    33    27    26    1
    34    27    28    1
    35    28    29    1
    36    28    30    2
