@<TRIPOS>MOLECULE
IMPHY007517
 58 59 0 0 0
SMALL
GASTEIGER

@<TRIPOS>ATOM
      1 C           4.5981    1.0468    0.0000 C.3     1  UNL1       -0.0257
      2 C           4.5981    2.0468    0.0000 C.3     1  UNL1       -0.0302
      3 C           3.7320    0.5468    0.0000 C.3     1  UNL1       -0.0328
      4 C           5.4920    2.5815    0.0000 C.3     1  UNL1       -0.0315
      5 C           5.4920    0.5121    0.0000 C.3     1  UNL1       -0.0471
      6 C           2.8660    1.0468    0.0000 C.3     1  UNL1       -0.0405
      7 C           3.7320    2.5468    0.0000 C.3     1  UNL1       -0.0490
      8 C           6.3981    2.0676    0.0000 C.3     1  UNL1       -0.0476
      9 C           2.8660    2.0468    0.0000 C.3     1  UNL1       -0.0499
     10 C           6.3981    1.0260    0.0000 C.3     1  UNL1       -0.0521
     11 C           4.5981    0.0468    0.0000 C.3     1  UNL1       -0.0590
     12 C           3.7320   -0.4532    0.0000 C.3     1  UNL1       -0.0492
     13 C           5.9820    3.4532    0.0000 C.3     1  UNL1       -0.0595
     14 C           4.9820    3.4416    0.0000 C.3     1  UNL1       -0.0595
     15 C           2.0000    0.5468    0.0000 C.3     1  UNL1       -0.0621
     16 C           2.8660   -0.9532    0.0000 C.3     1  UNL1       -0.0502
     17 C           2.8660   -1.9532    0.0000 C.3     1  UNL1       -0.0441
     18 C           2.0000   -2.4532    0.0000 C.3     1  UNL1       -0.0533
     19 C           3.7320   -2.4532    0.0000 C.3     1  UNL1       -0.0624
     20 C           2.0000   -3.4532    0.0000 C.3     1  UNL1       -0.0650
     21 H           4.5915    2.8968    0.0000 H       1  UNL1        0.0311
     22 H           3.1951    0.2368    0.0000 H       1  UNL1        0.0309
     23 H           5.0874    0.0423    0.0000 H       1  UNL1        0.0271
     24 H           5.8856    0.0331    0.0000 H       1  UNL1        0.0271
     25 H           2.3291    1.3568    0.0000 H       1  UNL1        0.0301
     26 H           4.1306    3.0217    0.0000 H       1  UNL1        0.0268
     27 H           3.3335    3.0217    0.0000 H       1  UNL1        0.0268
     28 H           7.0089    1.9615    0.0000 H       1  UNL1        0.0271
     29 H           6.6071    2.6513    0.0000 H       1  UNL1        0.0271
     30 H           2.6540    2.6294    0.0000 H       1  UNL1        0.0268
     31 H           2.2554    1.9391    0.0000 H       1  UNL1        0.0268
     32 H           6.6071    0.4423    0.0000 H       1  UNL1        0.0266
     33 H           7.0089    1.1321    0.0000 H       1  UNL1        0.0266
     34 H           3.9781    0.0468    0.0000 H       1  UNL1        0.0235
     35 H           4.5981   -0.5732    0.0000 H       1  UNL1        0.0235
     36 H           5.2181    0.0468    0.0000 H       1  UNL1        0.0235
     37 H           3.9441   -1.0358    0.0000 H       1  UNL1        0.0268
     38 H           4.3426   -0.3455    0.0000 H       1  UNL1        0.0268
     39 H           6.5225    3.1494    0.0000 H       1  UNL1        0.0235
     40 H           6.2857    3.9937    0.0000 H       1  UNL1        0.0235
     41 H           5.4415    3.7570    0.0000 H       1  UNL1        0.0235
     42 H           5.5154    3.7578    0.0000 H       1  UNL1        0.0235
     43 H           4.6658    3.9750    0.0000 H       1  UNL1        0.0235
     44 H           4.4487    3.1254    0.0000 H       1  UNL1        0.0235
     45 H           1.6900    1.0837    0.0000 H       1  UNL1        0.0233
     46 H           1.4631    0.2368    0.0000 H       1  UNL1        0.0233
     47 H           2.3100    0.0099    0.0000 H       1  UNL1        0.0233
     48 H           2.6540   -0.3706    0.0000 H       1  UNL1        0.0268
     49 H           2.2554   -1.0609    0.0000 H       1  UNL1        0.0268
     50 H           2.8660   -2.5732    0.0000 H       1  UNL1        0.0298
     51 H           1.7880   -1.8706    0.0000 H       1  UNL1        0.0265
     52 H           1.3894   -2.5609    0.0000 H       1  UNL1        0.0265
     53 H           3.4220   -2.9901    0.0000 H       1  UNL1        0.0232
     54 H           4.2690   -2.7632    0.0000 H       1  UNL1        0.0232
     55 H           4.0420   -1.9163    0.0000 H       1  UNL1        0.0232
     56 H           1.3800   -3.4532    0.0000 H       1  UNL1        0.0230
     57 H           2.0000   -4.0732    0.0000 H       1  UNL1        0.0230
     58 H           2.6200   -3.4532    0.0000 H       1  UNL1        0.0230
@<TRIPOS>BOND
     1     1     2    1
     2     1     3    1
     3     1     5    1
     4     1    11    1
     5     2     4    1
     6     2     7    1
     7     2    21    1
     8     3     6    1
     9     3    12    1
    10     3    22    1
    11     4     8    1
    12     4    13    1
    13     4    14    1
    14     5    10    1
    15     5    23    1
    16     5    24    1
    17     6     9    1
    18     6    15    1
    19     6    25    1
    20     7     9    1
    21     7    26    1
    22     7    27    1
    23     8    10    1
    24     8    28    1
    25     8    29    1
    26     9    30    1
    27     9    31    1
    28    10    32    1
    29    10    33    1
    30    11    34    1
    31    11    35    1
    32    11    36    1
    33    12    16    1
    34    12    37    1
    35    12    38    1
    36    13    39    1
    37    13    40    1
    38    13    41    1
    39    14    42    1
    40    14    43    1
    41    14    44    1
    42    15    45    1
    43    15    46    1
    44    15    47    1
    45    16    17    1
    46    16    48    1
    47    16    49    1
    48    17    18    1
    49    17    19    1
    50    17    50    1
    51    18    20    1
    52    18    51    1
    53    18    52    1
    54    19    53    1
    55    19    54    1
    56    19    55    1
    57    20    56    1
    58    20    57    1
    59    20    58    1
