@<TRIPOS>MOLECULE
IMPHY006294
 36 38 0 0 0
SMALL
GASTEIGER

@<TRIPOS>ATOM
      1 O           6.3580   -0.9259    0.0000 O.3     1  UNL1       -0.4826
      2 O           6.3465    2.1433    0.0000 O.2     1  UNL1       -0.2917
      3 O           4.5981    2.1087    0.0000 O.3     1  UNL1       -0.5051
      4 O           2.8660   -0.8913    0.0000 O.3     1  UNL1       -0.5056
      5 O           2.0000    0.6087    0.0000 O.2     1  UNL1       -0.2955
      6 C           7.2641   -0.4121    0.0000 C.3     1  UNL1        0.1322
      7 C           7.2641    0.6296    0.0000 C.3     1  UNL1        0.0520
      8 C           5.4641    0.6087    0.0000 C.ar    1  UNL1        0.1016
      9 C           5.4641   -0.3913    0.0000 C.ar    1  UNL1        0.1418
     10 C           6.3580    1.1434    0.0000 C.2     1  UNL1        0.1741
     11 C           8.1282   -0.9154    0.0000 C.ar    1  UNL1       -0.0069
     12 C           4.5981   -0.8913    0.0000 C.ar    1  UNL1        0.0342
     13 C           4.5981    1.1087    0.0000 C.ar    1  UNL1        0.1446
     14 C           3.7320   -0.3913    0.0000 C.ar    1  UNL1        0.1370
     15 C           3.7320    0.6087    0.0000 C.ar    1  UNL1        0.0980
     16 C           8.1244   -1.9154    0.0000 C.ar    1  UNL1       -0.0551
     17 C           8.9962   -0.4188    0.0000 C.ar    1  UNL1       -0.0551
     18 C           4.5981   -1.8913    0.0000 C.3     1  UNL1       -0.0327
     19 C           8.9884   -2.4187    0.0000 C.ar    1  UNL1       -0.0614
     20 C           9.8602   -0.9221    0.0000 C.ar    1  UNL1       -0.0614
     21 C           2.8660    1.1087    0.0000 C.2     1  UNL1        0.1573
     22 C           9.8564   -1.9221    0.0000 C.ar    1  UNL1       -0.0617
     23 H           7.2592   -1.2621    0.0000 H       1  UNL1        0.0789
     24 H           7.8750    0.5235    0.0000 H       1  UNL1        0.0385
     25 H           7.4732    1.2132    0.0000 H       1  UNL1        0.0385
     26 H           7.5862   -2.2233    0.0000 H       1  UNL1        0.0621
     27 H           8.9985    0.2012    0.0000 H       1  UNL1        0.0621
     28 H           3.9781   -1.8913    0.0000 H       1  UNL1        0.0280
     29 H           4.5981   -2.5113    0.0000 H       1  UNL1        0.0280
     30 H           5.2181   -1.8913    0.0000 H       1  UNL1        0.0280
     31 H           8.9860   -3.0387    0.0000 H       1  UNL1        0.0618
     32 H          10.3984   -0.6142    0.0000 H       1  UNL1        0.0618
     33 H           2.8660    1.7287    0.0000 H       1  UNL1        0.1084
     34 H          10.3921   -2.2342    0.0000 H       1  UNL1        0.0618
     35 H           4.0611    2.4187    0.0000 H       1  UNL1        0.2922
     36 H           2.8660   -1.5113    0.0000 H       1  UNL1        0.2922
@<TRIPOS>BOND
     1     1     6    1
     2     1     9    1
     3     2    10    2
     4     3    13    1
     5     3    35    1
     6     4    14    1
     7     4    36    1
     8     5    21    2
     9     6     7    1
    10     6    11    1
    11     6    23    1
    12     7    10    1
    13     7    24    1
    14     7    25    1
    15     8     9   ar
    16     8    10    1
    17     8    13   ar
    18     9    12   ar
    19    11    16   ar
    20    11    17   ar
    21    12    14   ar
    22    12    18    1
    23    13    15   ar
    24    14    15   ar
    25    15    21    1
    26    16    19   ar
    27    16    26    1
    28    17    20   ar
    29    17    27    1
    30    18    28    1
    31    18    29    1
    32    18    30    1
    33    19    22   ar
    34    19    31    1
    35    20    22   ar
    36    20    32    1
    37    21    33    1
    38    22    34    1
