@<TRIPOS>MOLECULE
IMPHY009032
 30 32 0 0 0
SMALL
GASTEIGER

@<TRIPOS>ATOM
      1 O           5.5923   -1.6692    0.0000 O.3     1  UNL1       -0.4929
      2 O           2.6049    2.2008    0.0000 O.3     1  UNL1       -0.5047
      3 N           4.7273    1.6018    0.0000 N.ar    1  UNL1       -0.3495
      4 N           7.2547    0.4776    0.0000 N.ar    1  UNL1       -0.2499
      5 C           5.2273    0.0630    0.0000 C.ar    1  UNL1        0.0527
      6 C           4.2273    0.0630    0.0000 C.ar    1  UNL1        0.0146
      7 C           5.5364    1.0140    0.0000 C.ar    1  UNL1        0.0768
      8 C           3.9183    1.0140    0.0000 C.ar    1  UNL1        0.0896
      9 C           5.9123   -0.7218    0.0000 C.ar    1  UNL1        0.1478
     10 C           6.5518    1.2463    0.0000 C.ar    1  UNL1        0.0874
     11 C           3.5424   -0.7218    0.0000 C.ar    1  UNL1       -0.0517
     12 C           2.9029    1.2463    0.0000 C.ar    1  UNL1        0.1407
     13 C           2.5219   -0.5131    0.0000 C.ar    1  UNL1       -0.0576
     14 C           2.2000    0.4776    0.0000 C.ar    1  UNL1       -0.0181
     15 C           6.9328   -0.5131    0.0000 C.ar    1  UNL1        0.0706
     16 C           6.8498    2.2008    0.0000 C.2     1  UNL1       -0.0414
     17 C           6.2528   -2.4200    0.0000 C.3     1  UNL1        0.0789
     18 C           7.8254    2.4200    0.0000 C.2     1  UNL1       -0.0966
     19 H           4.7273    2.2218    0.0000 H       1  UNL1        0.1661
     20 H           3.7408   -1.3092    0.0000 H       1  UNL1        0.0624
     21 H           2.1088   -0.9754    0.0000 H       1  UNL1        0.0619
     22 H           1.5940    0.6088    0.0000 H       1  UNL1        0.0655
     23 H           7.3459   -0.9754    0.0000 H       1  UNL1        0.0867
     24 H           6.4296    2.6568    0.0000 H       1  UNL1        0.0634
     25 H           2.0000    2.3367    0.0000 H       1  UNL1        0.2922
     26 H           5.7873   -2.8295    0.0000 H       1  UNL1        0.0660
     27 H           6.6623   -2.8856    0.0000 H       1  UNL1        0.0660
     28 H           6.7183   -2.0105    0.0000 H       1  UNL1        0.0660
     29 H           8.2456    1.9641    0.0000 H       1  UNL1        0.0535
     30 H           8.0102    3.0119    0.0000 H       1  UNL1        0.0535
@<TRIPOS>BOND
     1     1     9    1
     2     1    17    1
     3     2    12    1
     4     2    25    1
     5     3     7   ar
     6     3     8   ar
     7     3    19    1
     8     4    10   ar
     9     4    15   ar
    10     5     6   ar
    11     5     7   ar
    12     5     9   ar
    13     6     8   ar
    14     6    11   ar
    15     7    10   ar
    16     8    12   ar
    17     9    15   ar
    18    10    16    1
    19    11    13   ar
    20    11    20    1
    21    12    14   ar
    22    13    14   ar
    23    13    21    1
    24    14    22    1
    25    15    23    1
    26    16    18    2
    27    16    24    1
    28    17    26    1
    29    17    27    1
    30    17    28    1
    31    18    29    1
    32    18    30    1
