@<TRIPOS>MOLECULE
IMPHY016974
 29 28 0 0 0
SMALL
GASTEIGER

@<TRIPOS>ATOM
      1 O           2.0000   -0.0600    0.0000 O.2     1  UNL1       -0.2961
      2 C           7.1962   -0.0600    0.0000 C.3     1  UNL1       -0.0528
      3 C           8.0622    0.4400    0.0000 C.3     1  UNL1       -0.0533
      4 C           6.3301    0.4400    0.0000 C.3     1  UNL1       -0.0496
      5 C           8.9282   -0.0600    0.0000 C.3     1  UNL1       -0.0559
      6 C           5.4641   -0.0600    0.0000 C.3     1  UNL1       -0.0341
      7 C           9.7942    0.4400    0.0000 C.3     1  UNL1       -0.0653
      8 C           4.5981    0.4400    0.0000 C.2     1  UNL1       -0.0781
      9 C           3.7320   -0.0600    0.0000 C.2     1  UNL1       -0.0152
     10 C           3.7320   -1.0600    0.0000 C.3     1  UNL1       -0.0370
     11 C           2.8660    0.4400    0.0000 C.2     1  UNL1        0.1457
     12 H           6.7976   -0.5349    0.0000 H       1  UNL1        0.0265
     13 H           7.5947   -0.5349    0.0000 H       1  UNL1        0.0265
     14 H           8.4607    0.9149    0.0000 H       1  UNL1        0.0265
     15 H           7.6636    0.9149    0.0000 H       1  UNL1        0.0265
     16 H           6.7287    0.9149    0.0000 H       1  UNL1        0.0268
     17 H           5.9316    0.9149    0.0000 H       1  UNL1        0.0268
     18 H           8.5297   -0.5349    0.0000 H       1  UNL1        0.0263
     19 H           9.3267   -0.5349    0.0000 H       1  UNL1        0.0263
     20 H           5.0656   -0.5349    0.0000 H       1  UNL1        0.0308
     21 H           5.8626   -0.5349    0.0000 H       1  UNL1        0.0308
     22 H          10.1042   -0.0969    0.0000 H       1  UNL1        0.0230
     23 H          10.3312    0.7500    0.0000 H       1  UNL1        0.0230
     24 H           9.4842    0.9769    0.0000 H       1  UNL1        0.0230
     25 H           4.5981    1.0600    0.0000 H       1  UNL1        0.0576
     26 H           3.1120   -1.0600    0.0000 H       1  UNL1        0.0278
     27 H           3.7320   -1.6800    0.0000 H       1  UNL1        0.0278
     28 H           4.3520   -1.0600    0.0000 H       1  UNL1        0.0278
     29 H           2.8660    1.0600    0.0000 H       1  UNL1        0.1078
@<TRIPOS>BOND
     1     1    11    2
     2     2     3    1
     3     2     4    1
     4     2    12    1
     5     2    13    1
     6     3     5    1
     7     3    14    1
     8     3    15    1
     9     4     6    1
    10     4    16    1
    11     4    17    1
    12     5     7    1
    13     5    18    1
    14     5    19    1
    15     6     8    1
    16     6    20    1
    17     6    21    1
    18     7    22    1
    19     7    23    1
    20     7    24    1
    21     8     9    2
    22     8    25    1
    23     9    10    1
    24     9    11    1
    25    10    26    1
    26    10    27    1
    27    10    28    1
    28    11    29    1
