@<TRIPOS>MOLECULE
IMPHY016290
 23 22 0 0 0
SMALL
GASTEIGER

@<TRIPOS>ATOM
      1 O           5.4641    1.3100    0.0000 O.3     1  UNL1       -0.3493
      2 O           3.7320    1.3100    0.0000 O.3     1  UNL1       -0.3493
      3 O           3.7320   -0.6900    0.0000 O.3     1  UNL1       -0.3900
      4 C           4.5981    0.8100    0.0000 C.3     1  UNL1        0.1820
      5 C           4.5981   -0.1900    0.0000 C.3     1  UNL1        0.0951
      6 C           6.3301    0.8100    0.0000 C.3     1  UNL1        0.0479
      7 C           2.8660    0.8100    0.0000 C.3     1  UNL1        0.0479
      8 C           7.1962    1.3100    0.0000 C.3     1  UNL1       -0.0415
      9 C           2.0000    1.3100    0.0000 C.3     1  UNL1       -0.0415
     10 H           4.5981    1.4300    0.0000 H       1  UNL1        0.0933
     11 H           4.8101   -0.7726    0.0000 H       1  UNL1        0.0608
     12 H           5.2087   -0.0823    0.0000 H       1  UNL1        0.0608
     13 H           5.9316    0.3351    0.0000 H       1  UNL1        0.0558
     14 H           6.7287    0.3351    0.0000 H       1  UNL1        0.0558
     15 H           2.4675    0.3351    0.0000 H       1  UNL1        0.0558
     16 H           3.2646    0.3351    0.0000 H       1  UNL1        0.0558
     17 H           7.5062    0.7731    0.0000 H       1  UNL1        0.0252
     18 H           7.7331    1.6200    0.0000 H       1  UNL1        0.0252
     19 H           6.8862    1.8469    0.0000 H       1  UNL1        0.0252
     20 H           2.3100    1.8469    0.0000 H       1  UNL1        0.0252
     21 H           1.4631    1.6200    0.0000 H       1  UNL1        0.0252
     22 H           1.6900    0.7731    0.0000 H       1  UNL1        0.0252
     23 H           3.7320   -1.3100    0.0000 H       1  UNL1        0.2096
@<TRIPOS>BOND
     1     1     4    1
     2     1     6    1
     3     2     4    1
     4     2     7    1
     5     3     5    1
     6     3    23    1
     7     4     5    1
     8     4    10    1
     9     5    11    1
    10     5    12    1
    11     6     8    1
    12     6    13    1
    13     6    14    1
    14     7     9    1
    15     7    15    1
    16     7    16    1
    17     8    17    1
    18     8    18    1
    19     8    19    1
    20     9    20    1
    21     9    21    1
    22     9    22    1
