@<TRIPOS>MOLECULE
IMPHY013927
 87 91 0 0 0
SMALL
GASTEIGER

@<TRIPOS>ATOM
      1 O           2.8718   -1.8626    0.0000 O.3     1  UNL1       -0.4610
      2 O          11.8728    3.3341    0.0000 O.2     1  UNL1       -0.2971
      3 O           3.7320   -3.3660    0.0000 O.2     1  UNL1       -0.2512
      4 C           7.3989   -0.3103    0.0000 C.3     1  UNL1       -0.0231
      5 C           6.5328    0.1897    0.0000 C.3     1  UNL1       -0.0230
      6 C           8.2649    0.1897    0.0000 C.3     1  UNL1       -0.0294
      7 C           8.2649    1.1897    0.0000 C.3     1  UNL1       -0.0254
      8 C           5.6228   -0.3172    0.0000 C.3     1  UNL1       -0.0290
      9 C           5.6148   -1.3588    0.0000 C.3     1  UNL1       -0.0253
     10 C           9.1588    1.7244    0.0000 C.3     1  UNL1       -0.0289
     11 C           6.5328    1.1897    0.0000 C.3     1  UNL1       -0.0463
     12 C           7.4149   -1.3518    0.0000 C.3     1  UNL1       -0.0463
     13 C           7.3989    1.6897    0.0000 C.3     1  UNL1       -0.0466
     14 C          10.0649    1.2105    0.0000 C.3     1  UNL1       -0.0195
     15 C           9.1588   -0.3450    0.0000 C.3     1  UNL1       -0.0487
     16 C           6.5169   -1.8796    0.0000 C.3     1  UNL1       -0.0467
     17 C           4.6960    0.2469    0.0000 C.3     1  UNL1       -0.0407
     18 C          10.0649    0.1689    0.0000 C.3     1  UNL1       -0.0464
     19 C           8.2649   -0.8103    0.0000 C.3     1  UNL1       -0.0588
     20 C           5.6668    0.6897    0.0000 C.3     1  UNL1       -0.0588
     21 C           4.6794   -1.9085    0.0000 C.3     1  UNL1       -0.0095
     22 C           3.7481   -0.2810    0.0000 C.3     1  UNL1        0.0025
     23 C           8.2649    2.1897    0.0000 C.3     1  UNL1       -0.0590
     24 C           9.1337    2.8090    0.0000 C.3     1  UNL1       -0.0425
     25 C          11.0087    1.7457    0.0000 C.3     1  UNL1        0.0203
     26 C           3.7398   -1.3660    0.0000 C.3     1  UNL1        0.1086
     27 C           5.6071   -2.3587    0.0000 C.3     1  UNL1       -0.0592
     28 C          10.9347    0.7172    0.0000 C.3     1  UNL1       -0.0587
     29 C          10.0649    3.3660    0.0000 C.3     1  UNL1        0.0064
     30 C          11.0087    2.8307    0.0000 C.2     1  UNL1        0.1367
     31 C           2.7482   -0.2695    0.0000 C.3     1  UNL1       -0.0564
     32 C           3.2582    0.5907    0.0000 C.3     1  UNL1       -0.0564
     33 C          11.8728    1.2424    0.0000 C.3     1  UNL1       -0.0552
     34 C           2.8680   -2.8626    0.0000 C.2     1  UNL1        0.3042
     35 C           2.0000   -3.3593    0.0000 C.3     1  UNL1        0.0332
     36 H           9.0043    0.6090    0.0000 H       1  UNL1        0.0312
     37 H           6.3540   -0.7506    0.0000 H       1  UNL1        0.0312
     38 H           9.8883    2.1606    0.0000 H       1  UNL1        0.0312
     39 H           6.3208    1.7723    0.0000 H       1  UNL1        0.0271
     40 H           5.9222    1.0820    0.0000 H       1  UNL1        0.0271
     41 H           7.6330   -1.9322    0.0000 H       1  UNL1        0.0271
     42 H           8.0241   -1.2363    0.0000 H       1  UNL1        0.0271
     43 H           7.7974    2.1646    0.0000 H       1  UNL1        0.0271
     44 H           7.0003    2.1646    0.0000 H       1  UNL1        0.0271
     45 H           8.7542   -0.8148    0.0000 H       1  UNL1        0.0268
     46 H           9.5524   -0.8240    0.0000 H       1  UNL1        0.0268
     47 H           6.1196   -2.3555    0.0000 H       1  UNL1        0.0271
     48 H           6.9178   -2.3525    0.0000 H       1  UNL1        0.0271
     49 H           5.1042    0.7136    0.0000 H       1  UNL1        0.0275
     50 H           4.3061    0.7290    0.0000 H       1  UNL1        0.0275
     51 H          10.2739   -0.4148    0.0000 H       1  UNL1        0.0271
     52 H          10.6757    0.2750    0.0000 H       1  UNL1        0.0271
     53 H           7.9549   -1.3472    0.0000 H       1  UNL1        0.0235
     54 H           8.8018   -1.1203    0.0000 H       1  UNL1        0.0235
     55 H           8.5749   -0.2734    0.0000 H       1  UNL1        0.0235
     56 H           5.9768    1.2266    0.0000 H       1  UNL1        0.0235
     57 H           5.1299    0.9997    0.0000 H       1  UNL1        0.0235
     58 H           5.3568    0.1528    0.0000 H       1  UNL1        0.0235
     59 H           4.2821   -2.3844    0.0000 H       1  UNL1        0.0306
     60 H           5.0803   -2.3814    0.0000 H       1  UNL1        0.0306
     61 H           8.8849    2.1897    0.0000 H       1  UNL1        0.0235
     62 H           8.2649    2.8097    0.0000 H       1  UNL1        0.0235
     63 H           7.6449    2.1897    0.0000 H       1  UNL1        0.0235
     64 H           8.9112    3.3878    0.0000 H       1  UNL1        0.0272
     65 H           8.5255    2.6889    0.0000 H       1  UNL1        0.0272
     66 H          11.0051    1.1258    0.0000 H       1  UNL1        0.0380
     67 H           3.7386   -1.9860    0.0000 H       1  UNL1        0.0739
     68 H           4.9871   -2.3540    0.0000 H       1  UNL1        0.0235
     69 H           5.6023   -2.9787    0.0000 H       1  UNL1        0.0235
     70 H           6.2271   -2.3635    0.0000 H       1  UNL1        0.0235
     71 H          10.6289    0.1779    0.0000 H       1  UNL1        0.0235
     72 H          11.4741    0.4113    0.0000 H       1  UNL1        0.0235
     73 H          11.2406    1.2565    0.0000 H       1  UNL1        0.0235
     74 H          10.4585    3.8450    0.0000 H       1  UNL1        0.0342
     75 H           9.6603    3.8358    0.0000 H       1  UNL1        0.0342
     76 H           2.7554    0.3505    0.0000 H       1  UNL1        0.0236
     77 H           2.1282   -0.2623    0.0000 H       1  UNL1        0.0236
     78 H           2.7410   -0.8894    0.0000 H       1  UNL1        0.0236
     79 H           3.7986    0.8945    0.0000 H       1  UNL1        0.0236
     80 H           2.9544    1.1312    0.0000 H       1  UNL1        0.0236
     81 H           2.7177    0.2870    0.0000 H       1  UNL1        0.0236
     82 H          11.5607    0.7067    0.0000 H       1  UNL1        0.0237
     83 H          12.4085    0.9303    0.0000 H       1  UNL1        0.0237
     84 H          12.1848    1.7781    0.0000 H       1  UNL1        0.0237
     85 H           1.6921   -2.8212    0.0000 H       1  UNL1        0.0342
     86 H           1.4619   -3.6672    0.0000 H       1  UNL1        0.0342
     87 H           2.3079   -3.8974    0.0000 H       1  UNL1        0.0342
@<TRIPOS>BOND
     1    26     1    1
     2     1    34    1
     3     2    30    2
     4     3    34    2
     5     4     5    1
     6     4     6    1
     7     4    12    1
     8     4    19    1
     9     5     8    1
    10     5    11    1
    11     5    20    1
    12     6     7    1
    13     6    15    1
    14     6    36    1
    15     7    10    1
    16     7    13    1
    17     7    23    1
    18     8     9    1
    19     8    17    1
    20     8    37    1
    21     9    16    1
    22     9    21    1
    23     9    27    1
    24    10    14    1
    25    10    24    1
    26    10    38    1
    27    11    13    1
    28    11    39    1
    29    11    40    1
    30    12    16    1
    31    12    41    1
    32    12    42    1
    33    13    43    1
    34    13    44    1
    35    14    18    1
    36    14    25    1
    37    14    28    1
    38    15    18    1
    39    15    45    1
    40    15    46    1
    41    16    47    1
    42    16    48    1
    43    17    22    1
    44    17    49    1
    45    17    50    1
    46    18    51    1
    47    18    52    1
    48    19    53    1
    49    19    54    1
    50    19    55    1
    51    20    56    1
    52    20    57    1
    53    20    58    1
    54    21    26    1
    55    21    59    1
    56    21    60    1
    57    22    26    1
    58    22    31    1
    59    22    32    1
    60    23    61    1
    61    23    62    1
    62    23    63    1
    63    24    29    1
    64    24    64    1
    65    24    65    1
    66    25    30    1
    67    25    33    1
    68    25    66    1
    69    26    67    1
    70    27    68    1
    71    27    69    1
    72    27    70    1
    73    28    71    1
    74    28    72    1
    75    28    73    1
    76    29    30    1
    77    29    74    1
    78    29    75    1
    79    31    76    1
    80    31    77    1
    81    31    78    1
    82    32    79    1
    83    32    80    1
    84    32    81    1
    85    33    82    1
    86    33    83    1
    87    33    84    1
    88    34    35    1
    89    35    85    1
    90    35    86    1
    91    35    87    1
