@<TRIPOS>MOLECULE
IMPHY015534
 25 24 0 0 0
SMALL
GASTEIGER

@<TRIPOS>ATOM
      1 O           5.4641    0.7500    0.0000 O.3     1  UNL1       -0.3933
      2 O           4.5981   -0.7500    0.0000 O.2     1  UNL1       -0.2503
      3 O           6.3301   -0.7500    0.0000 O.2     1  UNL1       -0.2503
      4 C           3.7320    0.7500    0.0000 C.3     1  UNL1        0.0452
      5 C           7.1962    0.7500    0.0000 C.3     1  UNL1        0.0452
      6 C           2.8660    0.2500    0.0000 C.3     1  UNL1       -0.0458
      7 C           8.0622    0.2500    0.0000 C.3     1  UNL1       -0.0458
      8 C           4.5981    0.2500    0.0000 C.2     1  UNL1        0.3144
      9 C           6.3301    0.2500    0.0000 C.2     1  UNL1        0.3144
     10 C           2.0000    0.7500    0.0000 C.3     1  UNL1       -0.0648
     11 C           8.9282    0.7500    0.0000 C.3     1  UNL1       -0.0648
     12 H           4.1306    1.2250    0.0000 H       1  UNL1        0.0378
     13 H           3.3335    1.2250    0.0000 H       1  UNL1        0.0378
     14 H           7.5947    1.2250    0.0000 H       1  UNL1        0.0378
     15 H           6.7976    1.2250    0.0000 H       1  UNL1        0.0378
     16 H           2.4675   -0.2249    0.0000 H       1  UNL1        0.0268
     17 H           3.2646   -0.2249    0.0000 H       1  UNL1        0.0268
     18 H           7.6636   -0.2249    0.0000 H       1  UNL1        0.0268
     19 H           8.4607   -0.2249    0.0000 H       1  UNL1        0.0268
     20 H           2.3100    1.2869    0.0000 H       1  UNL1        0.0230
     21 H           1.4631    1.0600    0.0000 H       1  UNL1        0.0230
     22 H           1.6900    0.2131    0.0000 H       1  UNL1        0.0230
     23 H           9.2382    0.2131    0.0000 H       1  UNL1        0.0230
     24 H           9.4651    1.0600    0.0000 H       1  UNL1        0.0230
     25 H           8.6182    1.2869    0.0000 H       1  UNL1        0.0230
@<TRIPOS>BOND
     1     1     8    1
     2     1     9    1
     3     2     8    2
     4     3     9    2
     5     4     6    1
     6     4     8    1
     7     4    12    1
     8     4    13    1
     9     5     7    1
    10     5     9    1
    11     5    14    1
    12     5    15    1
    13     6    10    1
    14     6    16    1
    15     6    17    1
    16     7    11    1
    17     7    18    1
    18     7    19    1
    19    10    20    1
    20    10    21    1
    21    10    22    1
    22    11    23    1
    23    11    24    1
    24    11    25    1
