@<TRIPOS>MOLECULE
IMPHY008445
 51 53 0 0 0
SMALL
GASTEIGER

@<TRIPOS>ATOM
      1 O           8.1301   -0.2704    0.0000 O.2     1  UNL1       -0.4507
      2 O           4.6000   -0.2945    0.0000 O.3     1  UNL1       -0.4946
      3 O           6.3817    2.7642    0.0000 O.3     1  UNL1       -0.5055
      4 O           9.8622    1.7296    0.0000 O.3     1  UNL1       -0.5007
      5 O           8.1301    2.7296    0.0000 O.2     1  UNL1       -0.2830
      6 O          12.4602   -1.7704    0.0000 O.3     1  UNL1       -0.4915
      7 O          10.7282   -2.7704    0.0000 O.3     1  UNL1       -0.5033
      8 C           5.4641    1.2504    0.0000 C.ar    1  UNL1        0.0403
      9 C           7.2641    1.2296    0.0000 C.ar    1  UNL1        0.1094
     10 C           7.2641    0.2296    0.0000 C.ar    1  UNL1        0.1466
     11 C           6.3701    1.7643    0.0000 C.ar    1  UNL1        0.1383
     12 C           4.6000    1.7538    0.0000 C.3     1  UNL1       -0.0023
     13 C           5.4641    0.2088    0.0000 C.ar    1  UNL1        0.1305
     14 C           6.3701   -0.3051    0.0000 C.ar    1  UNL1        0.0236
     15 C           8.1301    1.7296    0.0000 C.ar    1  UNL1        0.2379
     16 C           8.9961    0.2296    0.0000 C.ar    1  UNL1        0.1807
     17 C           8.9961    1.2296    0.0000 C.ar    1  UNL1        0.2082
     18 C           9.8622   -0.2704    0.0000 C.ar    1  UNL1        0.0247
     19 C           3.7320    1.2571    0.0000 C.2     1  UNL1       -0.0807
     20 C           2.8680    1.7604    0.0000 C.2     1  UNL1       -0.0793
     21 C           9.8622   -1.2704    0.0000 C.ar    1  UNL1       -0.0057
     22 C          10.7282    0.2296    0.0000 C.ar    1  UNL1       -0.0473
     23 C          10.7282   -1.7704    0.0000 C.ar    1  UNL1        0.1591
     24 C          11.5942   -0.2704    0.0000 C.ar    1  UNL1       -0.0156
     25 C          11.5942   -1.2704    0.0000 C.ar    1  UNL1        0.1613
     26 C           2.0000    1.2638    0.0000 C.3     1  UNL1       -0.0440
     27 C           2.8718    2.7604    0.0000 C.3     1  UNL1       -0.0440
     28 C           4.6038   -1.2945    0.0000 C.3     1  UNL1        0.0788
     29 C          13.3263   -1.2704    0.0000 C.3     1  UNL1        0.0790
     30 H           5.0003    2.2272    0.0000 H       1  UNL1        0.0358
     31 H           4.2033    2.2302    0.0000 H       1  UNL1        0.0358
     32 H           6.3773   -0.9250    0.0000 H       1  UNL1        0.0691
     33 H           3.7296    0.6371    0.0000 H       1  UNL1        0.0575
     34 H           9.3252   -1.5804    0.0000 H       1  UNL1        0.0662
     35 H          10.7282    0.8496    0.0000 H       1  UNL1        0.0626
     36 H           5.8484    3.0804    0.0000 H       1  UNL1        0.2922
     37 H          12.1311    0.0396    0.0000 H       1  UNL1        0.0655
     38 H           1.6921    1.8019    0.0000 H       1  UNL1        0.0274
     39 H           3.4918    2.7580    0.0000 H       1  UNL1        0.0274
     40 H           2.8742    3.3804    0.0000 H       1  UNL1        0.0274
     41 H           2.2518    2.7628    0.0000 H       1  UNL1        0.0274
     42 H           1.4619    0.9558    0.0000 H       1  UNL1        0.0274
     43 H           2.3079    0.7256    0.0000 H       1  UNL1        0.0274
     44 H           9.8622    2.3496    0.0000 H       1  UNL1        0.2924
     45 H           3.9838   -1.2969    0.0000 H       1  UNL1        0.0660
     46 H           4.6062   -1.9145    0.0000 H       1  UNL1        0.0660
     47 H           5.2238   -1.2921    0.0000 H       1  UNL1        0.0660
     48 H          11.2651   -3.0804    0.0000 H       1  UNL1        0.2923
     49 H          13.6363   -1.8073    0.0000 H       1  UNL1        0.0660
     50 H          13.8632   -0.9604    0.0000 H       1  UNL1        0.0660
     51 H          13.0163   -0.7335    0.0000 H       1  UNL1        0.0660
@<TRIPOS>BOND
     1     1    10   ar
     2     1    16   ar
     3     2    13    1
     4     2    28    1
     5     3    11    1
     6     3    36    1
     7     4    17    1
     8     4    44    1
     9     5    15    2
    10     6    25    1
    11     6    29    1
    12     7    23    1
    13     7    48    1
    14     8    11   ar
    15     8    12    1
    16     8    13   ar
    17     9    10   ar
    18     9    11   ar
    19     9    15   ar
    20    10    14   ar
    21    12    19    1
    22    12    30    1
    23    12    31    1
    24    13    14   ar
    25    14    32    1
    26    15    17   ar
    27    16    17   ar
    28    16    18    1
    29    18    21   ar
    30    18    22   ar
    31    19    20    2
    32    19    33    1
    33    20    26    1
    34    20    27    1
    35    21    23   ar
    36    21    34    1
    37    22    24   ar
    38    22    35    1
    39    23    25   ar
    40    24    25   ar
    41    24    37    1
    42    26    38    1
    43    26    42    1
    44    26    43    1
    45    27    39    1
    46    27    40    1
    47    27    41    1
    48    28    45    1
    49    28    46    1
    50    28    47    1
    51    29    49    1
    52    29    50    1
    53    29    51    1
