@<TRIPOS>MOLECULE
IMPHY000215
 49 52 0 0 0
SMALL
GASTEIGER

@<TRIPOS>ATOM
      1 O           7.9875    1.0494    0.0000 O.3     1  UNL1       -0.4806
      2 O           7.0165    3.8954    0.0000 O.2     1  UNL1       -0.2956
      3 N           4.5124    0.1327    0.0000 N.ar    1  UNL1       -0.3536
      4 C           8.3170    0.0612    0.0000 C.3     1  UNL1        0.1266
      5 C           9.0627   -0.6050    0.0000 C.3     1  UNL1       -0.0060
      6 C           6.2962    0.5070    0.0000 C.ar    1  UNL1        0.0411
      7 C           6.9654    1.2502    0.0000 C.ar    1  UNL1        0.1410
      8 C           5.3181    0.7150    0.0000 C.ar    1  UNL1        0.0583
      9 C           7.6200   -0.7129    0.0000 C.2     1  UNL1       -0.0406
     10 C           5.0091    1.6660    0.0000 C.ar    1  UNL1        0.0089
     11 C           9.2668    0.3739    0.0000 C.3     1  UNL1       -0.0212
     12 C           6.6028   -0.4884    0.0000 C.2     1  UNL1       -0.0493
     13 C           8.8585   -1.5840    0.0000 C.3     1  UNL1       -0.0306
     14 C           6.6564    2.2012    0.0000 C.ar    1  UNL1        0.0571
     15 C           4.0150    1.6634    0.0000 C.ar    1  UNL1        0.0074
     16 C           5.6782    2.4092    0.0000 C.ar    1  UNL1       -0.0382
     17 C           3.7086    0.7177    0.0000 C.ar    1  UNL1        0.0475
     18 C           9.6043   -2.2502    0.0000 C.2     1  UNL1       -0.0851
     19 C           3.3334    2.4429    0.0000 C.ar    1  UNL1       -0.0520
     20 C           2.6994    0.4860    0.0000 C.ar    1  UNL1       -0.0378
     21 C           7.3255    2.9444    0.0000 C.2     1  UNL1        0.1537
     22 C           9.4001   -3.2292    0.0000 C.2     1  UNL1       -0.0796
     23 C           2.3191    2.2346    0.0000 C.ar    1  UNL1       -0.0611
     24 C           2.0000    1.2495    0.0000 C.ar    1  UNL1       -0.0598
     25 C          10.1458   -3.8954    0.0000 C.3     1  UNL1       -0.0440
     26 C           8.4503   -3.5419    0.0000 C.3     1  UNL1       -0.0440
     27 H           9.6384   -0.8351    0.0000 H       1  UNL1        0.0310
     28 H           9.3892   -0.0780    0.0000 H       1  UNL1        0.0310
     29 H           7.8093   -1.3032    0.0000 H       1  UNL1        0.0611
     30 H           9.4607   -0.2150    0.0000 H       1  UNL1        0.0271
     31 H           9.8557    0.5678    0.0000 H       1  UNL1        0.0271
     32 H           9.0730    0.9628    0.0000 H       1  UNL1        0.0271
     33 H           6.1826   -0.9444    0.0000 H       1  UNL1        0.0623
     34 H           8.2828   -1.3540    0.0000 H       1  UNL1        0.0309
     35 H           8.5320   -2.1110    0.0000 H       1  UNL1        0.0309
     36 H           4.5113   -0.4873    0.0000 H       1  UNL1        0.1659
     37 H           5.4866    2.9988    0.0000 H       1  UNL1        0.0632
     38 H          10.1932   -2.0564    0.0000 H       1  UNL1        0.0571
     39 H           3.5313    3.0305    0.0000 H       1  UNL1        0.0624
     40 H           2.5152   -0.1060    0.0000 H       1  UNL1        0.0638
     41 H           7.9319    2.8155    0.0000 H       1  UNL1        0.1083
     42 H           1.9056    2.6966    0.0000 H       1  UNL1        0.0618
     43 H           1.3942    1.1178    0.0000 H       1  UNL1        0.0618
     44 H           8.2564   -2.9530    0.0000 H       1  UNL1        0.0274
     45 H           7.8614   -3.7357    0.0000 H       1  UNL1        0.0274
     46 H           9.7328   -4.3578    0.0000 H       1  UNL1        0.0274
     47 H          10.6082   -4.3085    0.0000 H       1  UNL1        0.0274
     48 H          10.5589   -3.4331    0.0000 H       1  UNL1        0.0274
     49 H           8.6441   -4.1308    0.0000 H       1  UNL1        0.0274
@<TRIPOS>BOND
     1     1     4    1
     2     1     7    1
     3     2    21    2
     4     3     8   ar
     5     3    17   ar
     6     3    36    1
     7     4     5    1
     8     4     9    1
     9     4    11    1
    10     5    13    1
    11     5    27    1
    12     5    28    1
    13     6     7   ar
    14     6     8   ar
    15     6    12    1
    16     7    14   ar
    17     8    10   ar
    18     9    12    2
    19     9    29    1
    20    10    15   ar
    21    10    16   ar
    22    11    30    1
    23    11    31    1
    24    11    32    1
    25    12    33    1
    26    13    18    1
    27    13    34    1
    28    13    35    1
    29    14    16   ar
    30    14    21    1
    31    15    17   ar
    32    15    19   ar
    33    16    37    1
    34    17    20   ar
    35    18    22    2
    36    18    38    1
    37    19    23   ar
    38    19    39    1
    39    20    24   ar
    40    20    40    1
    41    21    41    1
    42    22    25    1
    43    22    26    1
    44    23    24   ar
    45    23    42    1
    46    24    43    1
    47    25    46    1
    48    25    47    1
    49    25    48    1
    50    26    44    1
    51    26    45    1
    52    26    49    1
