@<TRIPOS>MOLECULE
IMPHY013349
 88 94 0 0 0
SMALL
GASTEIGER

@<TRIPOS>ATOM
      1 O           8.7785   -0.3550    0.0000 O.3     1  UNL1       -0.3513
      2 O           8.9316    4.3062    0.0000 O.3     1  UNL1       -0.3692
      3 O           6.5021    3.1336    0.0000 O.3     1  UNL1       -0.4639
      4 O           9.9157    0.1745    0.0000 O.2     1  UNL1       -0.2967
      5 O           6.0010   -1.3658    0.0000 O.3     1  UNL1       -0.3400
      6 O           8.7940   -2.3550    0.0000 O.3     1  UNL1       -0.4787
      7 O           7.0619   -2.3683    0.0000 O.2     1  UNL1       -0.2480
      8 O           5.7100    4.6758    0.0000 O.2     1  UNL1       -0.2508
      9 O           3.5523    0.4707    0.0000 O.2     1  UNL1       -0.4707
     10 O           4.2690   -1.3658    0.0000 O.3     1  UNL1       -0.3405
     11 O           6.0010   -3.3658    0.0000 O.3     1  UNL1       -0.3841
     12 O           4.2690   -4.3658    0.0000 O.3     1  UNL1       -0.3864
     13 O           2.5369   -3.3658    0.0000 O.3     1  UNL1       -0.3865
     14 O           2.5369   -0.3658    0.0000 O.3     1  UNL1       -0.3924
     15 C           7.9087    0.1383    0.0000 C.3     1  UNL1        0.1273
     16 C           8.4190    1.0463    0.0000 C.3     1  UNL1        0.0622
     17 C           7.9224    1.9142    0.0000 C.3     1  UNL1       -0.0146
     18 C           8.4257    2.7783    0.0000 C.3     1  UNL1        0.0412
     19 C           6.8671    0.1342    0.0000 C.3     1  UNL1        0.0314
     20 C           9.4257    2.7745    0.0000 C.3     1  UNL1        0.0057
     21 C           7.9164   -0.8617    0.0000 C.3     1  UNL1        0.1858
     22 C           6.8809    1.9343    0.0000 C.3     1  UNL1       -0.0478
     23 C           6.3497    1.0383    0.0000 C.3     1  UNL1       -0.0419
     24 C           8.1246    3.7257    0.0000 C.3     1  UNL1        0.0788
     25 C           9.4190    1.0425    0.0000 C.2     1  UNL1        0.1427
     26 C           9.9224    1.9065    0.0000 C.3     1  UNL1        0.0126
     27 C           9.7341    3.7195    0.0000 C.3     1  UNL1        0.0682
     28 C           9.0589    0.2778    0.0000 C.3     1  UNL1       -0.0498
     29 C           7.4438    2.4496    0.0000 C.3     1  UNL1        0.1011
     30 C           6.0010   -0.3658    0.0000 C.3     1  UNL1        0.0977
     31 C           6.8671   -0.8658    0.0000 C.3     1  UNL1       -0.0541
     32 C           7.3705    4.4352    0.0000 C.3     1  UNL1        0.0718
     33 C           7.9241   -1.8617    0.0000 C.2     1  UNL1        0.3369
     34 C          10.3236    4.5273    0.0000 C.3     1  UNL1       -0.0358
     35 C          10.6845    3.4085    0.0000 C.3     1  UNL1       -0.0358
     36 C           6.5526    4.1371    0.0000 C.2     1  UNL1        0.3096
     37 C           5.1350    0.1342    0.0000 C.ar    1  UNL1        0.0195
     38 C           5.1350   -1.8658    0.0000 C.3     1  UNL1        0.1886
     39 C           5.0305    1.1288    0.0000 C.ar    1  UNL1       -0.0183
     40 C           4.2215   -0.2725    0.0000 C.ar    1  UNL1        0.0973
     41 C           5.1350   -2.8657    0.0000 C.3     1  UNL1        0.1341
     42 C           4.0523    1.3367    0.0000 C.ar    1  UNL1        0.0920
     43 C           4.2690   -3.3658    0.0000 C.3     1  UNL1        0.1141
     44 C           3.4030   -1.8658    0.0000 C.3     1  UNL1        0.1130
     45 C           3.4030   -2.8657    0.0000 C.3     1  UNL1        0.1119
     46 C           2.5369   -1.3658    0.0000 C.3     1  UNL1        0.0730
     47 H           8.7724    1.9110    0.0000 H       1  UNL1        0.0318
     48 H          10.2713    2.8612    0.0000 H       1  UNL1        0.0340
     49 H           8.4557   -1.1676    0.0000 H       1  UNL1        0.0743
     50 H           6.9988    2.5430    0.0000 H       1  UNL1        0.0269
     51 H           6.3014    2.1546    0.0000 H       1  UNL1        0.0269
     52 H           5.8784    1.4411    0.0000 H       1  UNL1        0.0272
     53 H           5.8722    0.6429    0.0000 H       1  UNL1        0.0272
     54 H           8.1804    4.5739    0.0000 H       1  UNL1        0.0608
     55 H          10.3958    1.5062    0.0000 H       1  UNL1        0.0346
     56 H          10.3988    2.3032    0.0000 H       1  UNL1        0.0346
     57 H           8.5824   -0.1189    0.0000 H       1  UNL1        0.0240
     58 H           9.4556   -0.1987    0.0000 H       1  UNL1        0.0240
     59 H           9.5354    0.6745    0.0000 H       1  UNL1        0.0240
     60 H           6.9844    2.0333    0.0000 H       1  UNL1        0.0704
     61 H           7.7571    1.9145    0.0000 H       1  UNL1        0.0704
     62 H           5.4641   -0.6758    0.0000 H       1  UNL1        0.0655
     63 H           6.2471   -0.8658    0.0000 H       1  UNL1        0.0237
     64 H           6.8671   -1.4857    0.0000 H       1  UNL1        0.0237
     65 H           7.4871   -0.8658    0.0000 H       1  UNL1        0.0237
     66 H           7.8601    4.8156    0.0000 H       1  UNL1        0.0403
     67 H           7.0705    4.9779    0.0000 H       1  UNL1        0.0403
     68 H          10.8244    4.1618    0.0000 H       1  UNL1        0.0257
     69 H          10.6891    5.0281    0.0000 H       1  UNL1        0.0257
     70 H           9.8228    4.8928    0.0000 H       1  UNL1        0.0257
     71 H          10.4916    2.8192    0.0000 H       1  UNL1        0.0257
     72 H          11.2737    3.2156    0.0000 H       1  UNL1        0.0257
     73 H          10.8773    3.9977    0.0000 H       1  UNL1        0.0257
     74 H           5.1350   -1.2458    0.0000 H       1  UNL1        0.0938
     75 H           9.3285   -2.0409    0.0000 H       1  UNL1        0.2951
     76 H           5.4912    1.5436    0.0000 H       1  UNL1        0.0652
     77 H           4.0926   -0.8789    0.0000 H       1  UNL1        0.1033
     78 H           5.1350   -3.4858    0.0000 H       1  UNL1        0.0671
     79 H           3.8002    1.9031    0.0000 H       1  UNL1        0.1029
     80 H           3.7320   -3.6758    0.0000 H       1  UNL1        0.0648
     81 H           3.4030   -1.2458    0.0000 H       1  UNL1        0.0647
     82 H           3.4030   -3.4858    0.0000 H       1  UNL1        0.0647
     83 H           6.5380   -3.0558    0.0000 H       1  UNL1        0.2101
     84 H           1.9264   -1.2581    0.0000 H       1  UNL1        0.0584
     85 H           2.3249   -1.9484    0.0000 H       1  UNL1        0.0584
     86 H           3.7320   -4.6758    0.0000 H       1  UNL1        0.2100
     87 H           2.0000   -3.0558    0.0000 H       1  UNL1        0.2100
     88 H           2.0000   -0.0558    0.0000 H       1  UNL1        0.2095
@<TRIPOS>BOND
     1    15     1    1
     2     1    21    1
     3     2    24    1
     4     2    27    1
     5     3    29    1
     6     3    36    1
     7     4    25    2
     8    30     5    1
     9    38     5    1
    10     6    33    1
    11     6    75    1
    12     7    33    2
    13     8    36    2
    14     9    40   ar
    15     9    42   ar
    16    10    38    1
    17    10    44    1
    18    41    11    1
    19    11    83    1
    20    43    12    1
    21    12    86    1
    22    45    13    1
    23    13    87    1
    24    14    46    1
    25    14    88    1
    26    15    16    1
    27    15    19    1
    28    15    21    1
    29    16    17    1
    30    16    25    1
    31    16    28    1
    32    17    18    1
    33    17    22    1
    34    17    47    1
    35    18    20    1
    36    18    24    1
    37    18    29    1
    38    19    23    1
    39    19    30    1
    40    19    31    1
    41    20    26    1
    42    20    27    1
    43    20    48    1
    44    21    33    1
    45    21    49    1
    46    22    23    1
    47    22    50    1
    48    22    51    1
    49    23    52    1
    50    23    53    1
    51    24    32    1
    52    24    54    1
    53    25    26    1
    54    26    55    1
    55    26    56    1
    56    27    34    1
    57    27    35    1
    58    28    57    1
    59    28    58    1
    60    28    59    1
    61    29    60    1
    62    29    61    1
    63    30    37    1
    64    30    62    1
    65    31    63    1
    66    31    64    1
    67    31    65    1
    68    32    36    1
    69    32    66    1
    70    32    67    1
    71    34    68    1
    72    34    69    1
    73    34    70    1
    74    35    71    1
    75    35    72    1
    76    35    73    1
    77    37    39   ar
    78    37    40   ar
    79    38    41    1
    80    38    74    1
    81    39    42   ar
    82    39    76    1
    83    40    77    1
    84    41    43    1
    85    41    78    1
    86    42    79    1
    87    43    45    1
    88    43    80    1
    89    44    45    1
    90    44    46    1
    91    44    81    1
    92    45    82    1
    93    46    84    1
    94    46    85    1
