@<TRIPOS>MOLECULE
IMPHY012996
 54 56 0 0 0
SMALL
GASTEIGER

@<TRIPOS>ATOM
      1 O           2.5369    1.0000    0.0000 O.3     1  UNL1       -0.3947
      2 O           3.4030    3.5000    0.0000 O.3     1  UNL1       -0.3947
      3 O           6.8834   -0.5346    0.0000 O.3     1  UNL1       -0.4910
      4 O           8.6651    2.5242    0.0000 O.3     1  UNL1       -0.4913
      5 O           8.6651    0.4758    0.0000 O.3     1  UNL1       -0.5009
      6 O           3.4030   -2.5000    0.0000 O.3     1  UNL1       -0.4914
      7 O           5.1350   -3.5000    0.0000 O.3     1  UNL1       -0.5033
      8 C           4.2690    1.0000    0.0000 C.3     1  UNL1       -0.0017
      9 C           4.2690    2.0000    0.0000 C.3     1  UNL1       -0.0081
     10 C           5.1350    0.5000    0.0000 C.3     1  UNL1        0.0184
     11 C           5.1350    2.5000    0.0000 C.3     1  UNL1       -0.0219
     12 C           6.0010    1.0000    0.0000 C.ar    1  UNL1        0.0091
     13 C           6.0010    2.0000    0.0000 C.ar    1  UNL1       -0.0361
     14 C           3.4030    0.5000    0.0000 C.3     1  UNL1        0.0482
     15 C           3.4030    2.5000    0.0000 C.3     1  UNL1        0.0477
     16 C           5.1350   -0.5000    0.0000 C.ar    1  UNL1       -0.0358
     17 C           6.8950    0.4653    0.0000 C.ar    1  UNL1        0.1690
     18 C           6.8950    2.5347    0.0000 C.ar    1  UNL1       -0.0126
     19 C           7.8010    0.9792    0.0000 C.ar    1  UNL1        0.2013
     20 C           4.2690   -1.0000    0.0000 C.ar    1  UNL1       -0.0125
     21 C           6.0010   -1.0000    0.0000 C.ar    1  UNL1       -0.0543
     22 C           7.8010    2.0208    0.0000 C.ar    1  UNL1        0.1653
     23 C           4.2690   -2.0000    0.0000 C.ar    1  UNL1        0.1615
     24 C           6.0010   -2.0000    0.0000 C.ar    1  UNL1       -0.0162
     25 C           5.1350   -2.5000    0.0000 C.ar    1  UNL1        0.1585
     26 C           7.7436   -1.0446    0.0000 C.3     1  UNL1        0.0790
     27 C           8.6613    3.5241    0.0000 C.3     1  UNL1        0.0790
     28 C           3.4030   -3.5000    0.0000 C.3     1  UNL1        0.0790
     29 H           4.2690    0.3800    0.0000 H       1  UNL1        0.0335
     30 H           4.2690    2.6200    0.0000 H       1  UNL1        0.0330
     31 H           5.6720    0.1900    0.0000 H       1  UNL1        0.0402
     32 H           5.5335    2.9750    0.0000 H       1  UNL1        0.0317
     33 H           4.7365    2.9750    0.0000 H       1  UNL1        0.0317
     34 H           3.0044    0.0251    0.0000 H       1  UNL1        0.0560
     35 H           3.8015    0.0251    0.0000 H       1  UNL1        0.0560
     36 H           2.7924    2.6077    0.0000 H       1  UNL1        0.0560
     37 H           3.1909    1.9174    0.0000 H       1  UNL1        0.0560
     38 H           6.8878    3.1546    0.0000 H       1  UNL1        0.0658
     39 H           3.7320   -0.6900    0.0000 H       1  UNL1        0.0658
     40 H           6.5380   -0.6900    0.0000 H       1  UNL1        0.0622
     41 H           2.0000    0.6900    0.0000 H       1  UNL1        0.2094
     42 H           2.8660    3.8100    0.0000 H       1  UNL1        0.2094
     43 H           6.5380   -2.3100    0.0000 H       1  UNL1        0.0655
     44 H           9.2033    0.7838    0.0000 H       1  UNL1        0.2924
     45 H           7.4274   -1.5779    0.0000 H       1  UNL1        0.0660
     46 H           8.2769   -1.3608    0.0000 H       1  UNL1        0.0660
     47 H           8.0598   -0.5113    0.0000 H       1  UNL1        0.0660
     48 H           9.2813    3.5265    0.0000 H       1  UNL1        0.0660
     49 H           8.6589    4.1441    0.0000 H       1  UNL1        0.0660
     50 H           8.0413    3.5218    0.0000 H       1  UNL1        0.0660
     51 H           5.6720   -3.8100    0.0000 H       1  UNL1        0.2923
     52 H           2.7830   -3.5000    0.0000 H       1  UNL1        0.0660
     53 H           3.4030   -4.1200    0.0000 H       1  UNL1        0.0660
     54 H           4.0230   -3.5000    0.0000 H       1  UNL1        0.0660
@<TRIPOS>BOND
     1     1    14    1
     2     1    41    1
     3     2    15    1
     4     2    42    1
     5     3    17    1
     6     3    26    1
     7     4    22    1
     8     4    27    1
     9     5    19    1
    10     5    44    1
    11     6    23    1
    12     6    28    1
    13     7    25    1
    14     7    51    1
    15     8     9    1
    16     8    10    1
    17     8    14    1
    18     8    29    1
    19     9    11    1
    20     9    15    1
    21     9    30    1
    22    10    12    1
    23    10    16    1
    24    10    31    1
    25    11    13    1
    26    11    32    1
    27    11    33    1
    28    12    13   ar
    29    12    17   ar
    30    13    18   ar
    31    14    34    1
    32    14    35    1
    33    15    36    1
    34    15    37    1
    35    16    20   ar
    36    16    21   ar
    37    17    19   ar
    38    18    22   ar
    39    18    38    1
    40    19    22   ar
    41    20    23   ar
    42    20    39    1
    43    21    24   ar
    44    21    40    1
    45    23    25   ar
    46    24    25   ar
    47    24    43    1
    48    26    45    1
    49    26    46    1
    50    26    47    1
    51    27    48    1
    52    27    49    1
    53    27    50    1
    54    28    52    1
    55    28    53    1
    56    28    54    1
