@<TRIPOS>MOLECULE
IMPHY005575
 43 45 0 0 0
SMALL
GASTEIGER

@<TRIPOS>ATOM
      1 N           3.5827    1.5000    0.0000 N.3     1  UNL1       -0.2987
      2 N           7.0468    2.5000    0.0000 N.ar    1  UNL1       -0.2550
      3 C           2.6691    1.0933    0.0000 C.3     1  UNL1       -0.0008
      4 C           3.4782    2.4945    0.0000 C.3     1  UNL1       -0.0008
      5 C           2.5000    2.7024    0.0000 C.3     1  UNL1       -0.0390
      6 C           2.0000    1.8364    0.0000 C.3     1  UNL1       -0.0390
      7 C           4.4487    1.0000    0.0000 C.3     1  UNL1        0.0180
      8 C           5.3147    1.5000    0.0000 C.2     1  UNL1       -0.0603
      9 C           6.1808    1.0000    0.0000 C.2     1  UNL1        0.0048
     10 C           6.1808   -0.0000    0.0000 C.ar    1  UNL1       -0.0161
     11 C           7.0468    1.5000    0.0000 C.ar    1  UNL1        0.0713
     12 C           5.3147   -0.5000    0.0000 C.ar    1  UNL1       -0.0537
     13 C           7.0468   -0.5000    0.0000 C.ar    1  UNL1       -0.0537
     14 C           7.9128    1.0000    0.0000 C.ar    1  UNL1       -0.0357
     15 C           6.1808   -2.0000    0.0000 C.ar    1  UNL1       -0.0504
     16 C           5.3147   -1.5000    0.0000 C.ar    1  UNL1       -0.0583
     17 C           7.0468   -1.5000    0.0000 C.ar    1  UNL1       -0.0583
     18 C           8.7788    1.5000    0.0000 C.ar    1  UNL1       -0.0583
     19 C           6.1808   -3.0000    0.0000 C.3     1  UNL1       -0.0397
     20 C           7.9128    3.0000    0.0000 C.ar    1  UNL1        0.0283
     21 C           8.7788    2.5000    0.0000 C.ar    1  UNL1       -0.0436
     22 H           2.1675    0.7288    0.0000 H       1  UNL1        0.0427
     23 H           2.9791    0.5563    0.0000 H       1  UNL1        0.0427
     24 H           4.0982    2.4945    0.0000 H       1  UNL1        0.0427
     25 H           3.5430    3.1111    0.0000 H       1  UNL1        0.0427
     26 H           1.4984    2.2008    0.0000 H       1  UNL1        0.0278
     27 H           1.5851    1.3757    0.0000 H       1  UNL1        0.0278
     28 H           2.6916    3.2921    0.0000 H       1  UNL1        0.0278
     29 H           1.9336    2.9546    0.0000 H       1  UNL1        0.0278
     30 H           4.0502    0.5251    0.0000 H       1  UNL1        0.0470
     31 H           4.8472    0.5251    0.0000 H       1  UNL1        0.0470
     32 H           5.3147    2.1200    0.0000 H       1  UNL1        0.0591
     33 H           4.7778   -0.1900    0.0000 H       1  UNL1        0.0624
     34 H           7.5837   -0.1900    0.0000 H       1  UNL1        0.0624
     35 H           7.9128    0.3800    0.0000 H       1  UNL1        0.0639
     36 H           4.7778   -1.8100    0.0000 H       1  UNL1        0.0620
     37 H           7.5837   -1.8100    0.0000 H       1  UNL1        0.0620
     38 H           9.3158    1.1900    0.0000 H       1  UNL1        0.0619
     39 H           5.5608   -3.0000    0.0000 H       1  UNL1        0.0278
     40 H           6.1808   -3.6200    0.0000 H       1  UNL1        0.0278
     41 H           6.8008   -3.0000    0.0000 H       1  UNL1        0.0278
     42 H           7.9128    3.6200    0.0000 H       1  UNL1        0.0830
     43 H           9.3158    2.8100    0.0000 H       1  UNL1        0.0633
@<TRIPOS>BOND
     1     1     3    1
     2     1     4    1
     3     1     7    1
     4     2    11   ar
     5     2    20   ar
     6     3     6    1
     7     3    22    1
     8     3    23    1
     9     4     5    1
    10     4    24    1
    11     4    25    1
    12     5     6    1
    13     5    28    1
    14     5    29    1
    15     6    26    1
    16     6    27    1
    17     7     8    1
    18     7    30    1
    19     7    31    1
    20     8     9    2
    21     8    32    1
    22     9    10    1
    23     9    11    1
    24    10    12   ar
    25    10    13   ar
    26    11    14   ar
    27    12    16   ar
    28    12    33    1
    29    13    17   ar
    30    13    34    1
    31    14    18   ar
    32    14    35    1
    33    15    16   ar
    34    15    17   ar
    35    15    19    1
    36    16    36    1
    37    17    37    1
    38    18    21   ar
    39    18    38    1
    40    19    39    1
    41    19    40    1
    42    19    41    1
    43    20    21   ar
    44    20    42    1
    45    21    43    1
