@<TRIPOS>MOLECULE
IMPHY014617
 60 61 0 0 0
SMALL
GASTEIGER

@<TRIPOS>ATOM
      1 O           2.5000    3.5922    0.0000 O.3     1  UNL1       -0.4675
      2 O           4.0000    4.4582    0.0000 O.2     1  UNL1       -0.2502
      3 O           8.3058   -3.8382    0.0000 O.3     1  UNL1       -0.3950
      4 C           4.8660    1.2262    0.0000 C.3     1  UNL1       -0.0217
      5 C           4.8660    2.2262    0.0000 C.3     1  UNL1       -0.0193
      6 C           4.0000    2.7262    0.0000 C.3     1  UNL1        0.0683
      7 C           5.7600    0.6915    0.0000 C.3     1  UNL1       -0.0145
      8 C           4.0000    0.7262    0.0000 C.3     1  UNL1       -0.0468
      9 C           5.7600    2.7608    0.0000 C.3     1  UNL1       -0.0450
     10 C           3.1340    2.2262    0.0000 C.3     1  UNL1       -0.0372
     11 C           3.1340    1.2262    0.0000 C.3     1  UNL1       -0.0515
     12 C           4.8660    0.2262    0.0000 C.3     1  UNL1       -0.0587
     13 C           6.6660    1.2053    0.0000 C.2     1  UNL1       -0.0730
     14 C           6.6660    2.2470    0.0000 C.3     1  UNL1       -0.0314
     15 C           5.7484   -0.3084    0.0000 C.3     1  UNL1       -0.0458
     16 C           4.5000    3.5922    0.0000 C.3     1  UNL1       -0.0491
     17 C           3.5000    3.5922    0.0000 C.2     1  UNL1        0.3131
     18 C           6.6086   -0.8184    0.0000 C.3     1  UNL1       -0.0498
     19 C           7.5301    0.7020    0.0000 C.2     1  UNL1       -0.0992
     20 C           6.5970   -1.8184    0.0000 C.3     1  UNL1       -0.0418
     21 C           7.4572   -2.3283    0.0000 C.3     1  UNL1       -0.0271
     22 C           5.7253   -2.3083    0.0000 C.3     1  UNL1       -0.0623
     23 C           2.0000    4.4582    0.0000 C.3     1  UNL1        0.0817
     24 C           7.4456   -3.3283    0.0000 C.3     1  UNL1        0.0444
     25 H           4.8612    2.8461    0.0000 H       1  UNL1        0.0317
     26 H           6.2939    0.3763    0.0000 H       1  UNL1        0.0351
     27 H           3.6015    0.2512    0.0000 H       1  UNL1        0.0271
     28 H           4.3985    0.2512    0.0000 H       1  UNL1        0.0271
     29 H           6.1536    3.2398    0.0000 H       1  UNL1        0.0271
     30 H           5.3554    3.2306    0.0000 H       1  UNL1        0.0271
     31 H           2.9219    2.8088    0.0000 H       1  UNL1        0.0276
     32 H           2.5234    2.1185    0.0000 H       1  UNL1        0.0276
     33 H           2.5234    1.3338    0.0000 H       1  UNL1        0.0266
     34 H           2.9219    0.6435    0.0000 H       1  UNL1        0.0266
     35 H           4.2460    0.2262    0.0000 H       1  UNL1        0.0235
     36 H           4.8660   -0.3938    0.0000 H       1  UNL1        0.0235
     37 H           5.4860    0.2262    0.0000 H       1  UNL1        0.0235
     38 H           7.2769    2.1409    0.0000 H       1  UNL1        0.0310
     39 H           6.8751    2.8307    0.0000 H       1  UNL1        0.0310
     40 H           5.1391   -0.1937    0.0000 H       1  UNL1        0.0271
     41 H           5.5296   -0.8886    0.0000 H       1  UNL1        0.0271
     42 H           5.0369    3.2822    0.0000 H       1  UNL1        0.0240
     43 H           4.8100    4.1291    0.0000 H       1  UNL1        0.0240
     44 H           3.9631    3.9022    0.0000 H       1  UNL1        0.0240
     45 H           7.2179   -0.9331    0.0000 H       1  UNL1        0.0268
     46 H           6.8274   -0.2383    0.0000 H       1  UNL1        0.0268
     47 H           7.5277    0.0820    0.0000 H       1  UNL1        0.0534
     48 H           8.0683    1.0099    0.0000 H       1  UNL1        0.0534
     49 H           6.5899   -2.4383    0.0000 H       1  UNL1        0.0299
     50 H           8.0665   -2.4430    0.0000 H       1  UNL1        0.0290
     51 H           7.6760   -1.7482    0.0000 H       1  UNL1        0.0290
     52 H           5.4215   -1.7678    0.0000 H       1  UNL1        0.0232
     53 H           5.1848   -2.6121    0.0000 H       1  UNL1        0.0232
     54 H           6.0290   -2.8488    0.0000 H       1  UNL1        0.0232
     55 H           2.5369    4.7682    0.0000 H       1  UNL1        0.0661
     56 H           1.6900    4.9951    0.0000 H       1  UNL1        0.0661
     57 H           1.4631    4.1482    0.0000 H       1  UNL1        0.0661
     58 H           6.8364   -3.2136    0.0000 H       1  UNL1        0.0557
     59 H           7.2269   -3.9084    0.0000 H       1  UNL1        0.0557
     60 H           8.2987   -4.4582    0.0000 H       1  UNL1        0.2094
@<TRIPOS>BOND
     1     1    17    1
     2     1    23    1
     3     2    17    2
     4     3    24    1
     5     3    60    1
     6     4     5    1
     7     4     7    1
     8     4     8    1
     9     4    12    1
    10     5     6    1
    11     5     9    1
    12     5    25    1
    13     6    10    1
    14     6    16    1
    15     6    17    1
    16     7    13    1
    17     7    15    1
    18     7    26    1
    19     8    11    1
    20     8    27    1
    21     8    28    1
    22     9    14    1
    23     9    29    1
    24     9    30    1
    25    10    11    1
    26    10    31    1
    27    10    32    1
    28    11    33    1
    29    11    34    1
    30    12    35    1
    31    12    36    1
    32    12    37    1
    33    13    14    1
    34    13    19    2
    35    14    38    1
    36    14    39    1
    37    15    18    1
    38    15    40    1
    39    15    41    1
    40    16    42    1
    41    16    43    1
    42    16    44    1
    43    18    20    1
    44    18    45    1
    45    18    46    1
    46    19    47    1
    47    19    48    1
    48    20    21    1
    49    20    22    1
    50    20    49    1
    51    21    24    1
    52    21    50    1
    53    21    51    1
    54    22    52    1
    55    22    53    1
    56    22    54    1
    57    23    55    1
    58    23    56    1
    59    23    57    1
    60    24    58    1
    61    24    59    1
