@<TRIPOS>MOLECULE
IMPHY006387
 40 42 0 0 0
SMALL
GASTEIGER

@<TRIPOS>ATOM
      1 O           6.3981   -0.4254    0.0000 O.2     1  UNL1       -0.4507
      2 O           8.1301    1.5746    0.0000 O.3     1  UNL1       -0.4883
      3 O           2.8680   -0.4495    0.0000 O.3     1  UNL1       -0.4949
      4 O           4.6497    2.6092    0.0000 O.3     1  UNL1       -0.5058
      5 O           6.3981    2.5746    0.0000 O.2     1  UNL1       -0.2830
      6 O          10.7282   -1.9254    0.0000 O.3     1  UNL1       -0.4951
      7 C           5.5320    1.0746    0.0000 C.ar    1  UNL1        0.1092
      8 C           5.5320    0.0746    0.0000 C.ar    1  UNL1        0.1465
      9 C           7.2641    0.0746    0.0000 C.ar    1  UNL1        0.1808
     10 C           7.2641    1.0746    0.0000 C.ar    1  UNL1        0.2107
     11 C           6.3981    1.5746    0.0000 C.ar    1  UNL1        0.2381
     12 C           8.1301   -0.4254    0.0000 C.ar    1  UNL1        0.0213
     13 C           4.6381    1.6093    0.0000 C.ar    1  UNL1        0.1348
     14 C           4.6381   -0.4601    0.0000 C.ar    1  UNL1        0.0233
     15 C           3.7320    0.0538    0.0000 C.ar    1  UNL1        0.1271
     16 C           3.7320    1.0954    0.0000 C.ar    1  UNL1        0.0225
     17 C           8.1301   -1.4254    0.0000 C.ar    1  UNL1       -0.0475
     18 C           8.9962    0.0746    0.0000 C.ar    1  UNL1       -0.0475
     19 C           8.9962   -1.9254    0.0000 C.ar    1  UNL1       -0.0193
     20 C           9.8622   -0.4254    0.0000 C.ar    1  UNL1       -0.0193
     21 C           9.8622   -1.4254    0.0000 C.ar    1  UNL1        0.1201
     22 C           8.1301    2.5746    0.0000 C.3     1  UNL1        0.0791
     23 C           2.0000    0.0471    0.0000 C.3     1  UNL1        0.0788
     24 C          10.7282   -2.9254    0.0000 C.3     1  UNL1        0.0788
     25 H           4.6453   -1.0800    0.0000 H       1  UNL1        0.0691
     26 H           3.1963    1.4075    0.0000 H       1  UNL1        0.0691
     27 H           7.5932   -1.7354    0.0000 H       1  UNL1        0.0626
     28 H           8.9962    0.6946    0.0000 H       1  UNL1        0.0626
     29 H           8.9962   -2.5454    0.0000 H       1  UNL1        0.0654
     30 H          10.3991   -0.1154    0.0000 H       1  UNL1        0.0654
     31 H           4.1164    2.9254    0.0000 H       1  UNL1        0.2922
     32 H           8.7501    2.5746    0.0000 H       1  UNL1        0.0660
     33 H           8.1301    3.1946    0.0000 H       1  UNL1        0.0660
     34 H           7.5101    2.5746    0.0000 H       1  UNL1        0.0660
     35 H           2.3079    0.5852    0.0000 H       1  UNL1        0.0660
     36 H           1.4619    0.3550    0.0000 H       1  UNL1        0.0660
     37 H           1.6921   -0.4910    0.0000 H       1  UNL1        0.0660
     38 H          10.1082   -2.9254    0.0000 H       1  UNL1        0.0660
     39 H          10.7282   -3.5454    0.0000 H       1  UNL1        0.0660
     40 H          11.3482   -2.9254    0.0000 H       1  UNL1        0.0660
@<TRIPOS>BOND
     1     1     8   ar
     2     1     9   ar
     3     2    10    1
     4     2    22    1
     5     3    15    1
     6     3    23    1
     7     4    13    1
     8     4    31    1
     9     5    11    2
    10     6    21    1
    11     6    24    1
    12     7     8   ar
    13     7    11   ar
    14     7    13   ar
    15     8    14   ar
    16     9    10   ar
    17     9    12    1
    18    10    11   ar
    19    12    17   ar
    20    12    18   ar
    21    13    16   ar
    22    14    15   ar
    23    14    25    1
    24    15    16   ar
    25    16    26    1
    26    17    19   ar
    27    17    27    1
    28    18    20   ar
    29    18    28    1
    30    19    21   ar
    31    19    29    1
    32    20    21   ar
    33    20    30    1
    34    22    32    1
    35    22    33    1
    36    22    34    1
    37    23    35    1
    38    23    36    1
    39    23    37    1
    40    24    38    1
    41    24    39    1
    42    24    40    1
