@<TRIPOS>MOLECULE
IMPHY001876
 43 46 0 0 0
SMALL
GASTEIGER

@<TRIPOS>ATOM
      1 O           7.3138    1.2295    0.0000 O.co2   1  UNL1       -0.7750
      2 O           2.9176   -2.3019    0.0000 O.2     1  UNL1       -0.2756
      3 N           6.4421    0.7395    0.0000 N.3     1  UNL1        0.2198
      4 N           3.8000   -0.7673    0.0000 N.am    1  UNL1       -0.2975
      5 C           5.5321    0.2327    0.0000 C.3     1  UNL1       -0.0127
      6 C           4.6660    0.7327    0.0000 C.3     1  UNL1        0.0210
      7 C           5.5321   -0.7673    0.0000 C.3     1  UNL1        0.0182
      8 C           3.8000    0.2327    0.0000 C.3     1  UNL1        0.0339
      9 C           4.6500    1.7742    0.0000 C.3     1  UNL1       -0.0386
     10 C           4.6660   -1.2673    0.0000 C.3     1  UNL1        0.0229
     11 C           6.4501    1.7811    0.0000 C.3     1  UNL1       -0.0324
     12 C           6.3903   -1.2643    0.0000 C.3     1  UNL1       -0.0389
     13 C           7.2814    0.2113    0.0000 C.3     1  UNL1       -0.0324
     14 C           5.5480    2.3019    0.0000 C.3     1  UNL1       -0.0121
     15 C           7.2558   -0.7801    0.0000 C.3     1  UNL1       -0.0121
     16 C           2.9061    0.7673    0.0000 C.3     1  UNL1       -0.0334
     17 C           2.0000    0.2535    0.0000 C.3     1  UNL1       -0.0431
     18 C           2.9061   -1.3020    0.0000 C.2     1  UNL1        0.2158
     19 C           2.0000   -0.7881    0.0000 C.3     1  UNL1        0.0242
     20 H           5.5321    1.0827    0.0000 H       1  UNL1        0.0857
     21 H           3.9267    1.1520    0.0000 H       1  UNL1        0.0374
     22 H           5.5315   -1.6173    0.0000 H       1  UNL1        0.0371
     23 H           4.5361   -0.1923    0.0000 H       1  UNL1        0.0505
     24 H           4.4319    2.3546    0.0000 H       1  UNL1        0.0272
     25 H           4.0408    1.6587    0.0000 H       1  UNL1        0.0272
     26 H           4.2675   -1.7423    0.0000 H       1  UNL1        0.0469
     27 H           5.0646   -1.7423    0.0000 H       1  UNL1        0.0469
     28 H           7.0601    1.6703    0.0000 H       1  UNL1        0.0813
     29 H           6.6636    2.3632    0.0000 H       1  UNL1        0.0813
     30 H           5.9892   -1.7371    0.0000 H       1  UNL1        0.0272
     31 H           6.7843   -1.7430    0.0000 H       1  UNL1        0.0272
     32 H           7.8885    0.0854    0.0000 H       1  UNL1        0.0813
     33 H           7.5131    0.7863    0.0000 H       1  UNL1        0.0813
     34 H           5.9453    2.7779    0.0000 H       1  UNL1        0.0317
     35 H           5.1470    2.7748    0.0000 H       1  UNL1        0.0317
     36 H           7.4575   -1.3664    0.0000 H       1  UNL1        0.0317
     37 H           7.8685   -0.6857    0.0000 H       1  UNL1        0.0317
     38 H           3.3107    1.2371    0.0000 H       1  UNL1        0.0283
     39 H           2.5124    1.2464    0.0000 H       1  UNL1        0.0283
     40 H           1.7909    0.8372    0.0000 H       1  UNL1        0.0270
     41 H           1.3891    0.1474    0.0000 H       1  UNL1        0.0270
     42 H           1.3891   -0.6821    0.0000 H       1  UNL1        0.0358
     43 H           1.7909   -1.3718    0.0000 H       1  UNL1        0.0358
@<TRIPOS>UNITY_ATOM_ATTR
1 1
charge -1
3 1
charge 1
@<TRIPOS>BOND
     1     1     3    1
     2     2    18    2
     3     3     5    1
     4     3    11    1
     5     3    13    1
     6     4     8    1
     7     4    10    1
     8     4    18   am
     9     5     6    1
    10     5     7    1
    11     5    20    1
    12     6     8    1
    13     6     9    1
    14     6    21    1
    15     7    10    1
    16     7    12    1
    17     7    22    1
    18     8    16    1
    19     8    23    1
    20     9    14    1
    21     9    24    1
    22     9    25    1
    23    10    26    1
    24    10    27    1
    25    11    14    1
    26    11    28    1
    27    11    29    1
    28    12    15    1
    29    12    30    1
    30    12    31    1
    31    13    15    1
    32    13    32    1
    33    13    33    1
    34    14    34    1
    35    14    35    1
    36    15    36    1
    37    15    37    1
    38    16    17    1
    39    16    38    1
    40    16    39    1
    41    17    19    1
    42    17    40    1
    43    17    41    1
    44    18    19    1
    45    19    42    1
    46    19    43    1
