@<TRIPOS>MOLECULE
IMPHY010610
 11 10 0 0 0
SMALL
GASTEIGER

@<TRIPOS>ATOM
      1 S           4.5981    0.3100    0.0000 S.3     1  UNL1        0.1355
      2 O           5.4641    0.8100    0.0000 O.2     1  UNL1       -0.2390
      3 C           2.8660    0.3100    0.0000 C.3     1  UNL1       -0.0282
      4 C           2.0000   -0.1900    0.0000 C.3     1  UNL1       -0.0612
      5 C           3.7320   -0.1900    0.0000 C.2     1  UNL1       -0.0069
      6 H           3.2646    0.7849    0.0000 H       1  UNL1        0.0311
      7 H           2.4675    0.7849    0.0000 H       1  UNL1        0.0311
      8 H           1.6900    0.3469    0.0000 H       1  UNL1        0.0233
      9 H           1.4631   -0.5000    0.0000 H       1  UNL1        0.0233
     10 H           2.3100   -0.7269    0.0000 H       1  UNL1        0.0233
     11 H           3.7320   -0.8100    0.0000 H       1  UNL1        0.0678
@<TRIPOS>BOND
     1     1     2    2
     2     1     5    2
     3     3     4    1
     4     3     5    1
     5     3     6    1
     6     3     7    1
     7     4     8    1
     8     4     9    1
     9     4    10    1
    10     5    11    1
