@<TRIPOS>MOLECULE
IMPHY004595
 44 46 0 0 0
SMALL
GASTEIGER

@<TRIPOS>ATOM
      1 O           5.5301   -1.7379    0.0000 O.2     1  UNL1       -0.4618
      2 O           8.1282   -1.2379    0.0000 O.3     1  UNL1       -0.5058
      3 O           9.8602    1.7621    0.0000 O.3     1  UNL1       -0.5064
      4 O           5.5301    1.2621    0.0000 O.2     1  UNL1       -0.2863
      5 O           3.7817    1.2967    0.0000 O.3     1  UNL1       -0.5058
      6 O           2.0000   -1.7621    0.0000 O.3     1  UNL1       -0.5065
      7 C           7.2622    0.2621    0.0000 C.ar    1  UNL1        0.0307
      8 C           8.9942    0.2621    0.0000 C.ar    1  UNL1        0.0397
      9 C           6.3961   -0.2379    0.0000 C.ar    1  UNL1        0.0679
     10 C           8.1282   -0.2379    0.0000 C.ar    1  UNL1        0.1317
     11 C           9.8602   -0.2379    0.0000 C.3     1  UNL1       -0.0023
     12 C           4.6641   -0.2379    0.0000 C.ar    1  UNL1        0.1060
     13 C           5.5301    0.2621    0.0000 C.ar    1  UNL1        0.2038
     14 C           8.9942    1.2621    0.0000 C.ar    1  UNL1        0.1238
     15 C           7.2622    1.2621    0.0000 C.ar    1  UNL1       -0.0469
     16 C           4.6641   -1.2379    0.0000 C.ar    1  UNL1        0.1454
     17 C           8.1282    1.7621    0.0000 C.ar    1  UNL1       -0.0191
     18 C           6.3961   -1.2379    0.0000 C.ar    1  UNL1        0.1040
     19 C          10.7263    0.2621    0.0000 C.2     1  UNL1       -0.0807
     20 C           3.7702    0.2967    0.0000 C.ar    1  UNL1        0.1347
     21 C           3.7702   -1.7726    0.0000 C.ar    1  UNL1        0.0231
     22 C          11.5923   -0.2379    0.0000 C.2     1  UNL1       -0.0793
     23 C           2.8641   -0.2171    0.0000 C.ar    1  UNL1        0.0223
     24 C           2.8641   -1.2587    0.0000 C.ar    1  UNL1        0.1239
     25 C          12.4583    0.2621    0.0000 C.3     1  UNL1       -0.0440
     26 C          11.5923   -1.2379    0.0000 C.3     1  UNL1       -0.0440
     27 H           9.4617   -0.7129    0.0000 H       1  UNL1        0.0358
     28 H          10.2588   -0.7129    0.0000 H       1  UNL1        0.0358
     29 H           6.7252    1.5721    0.0000 H       1  UNL1        0.0626
     30 H           8.1282    2.3821    0.0000 H       1  UNL1        0.0654
     31 H           6.9331   -1.5479    0.0000 H       1  UNL1        0.1037
     32 H          10.7263    0.8821    0.0000 H       1  UNL1        0.0575
     33 H           3.7773   -2.3926    0.0000 H       1  UNL1        0.0691
     34 H           2.3284    0.0950    0.0000 H       1  UNL1        0.0691
     35 H           8.6651   -1.5479    0.0000 H       1  UNL1        0.2922
     36 H          12.7683   -0.2749    0.0000 H       1  UNL1        0.0274
     37 H          12.9953    0.5721    0.0000 H       1  UNL1        0.0274
     38 H          12.1483    0.7990    0.0000 H       1  UNL1        0.0274
     39 H          10.9723   -1.2379    0.0000 H       1  UNL1        0.0274
     40 H          11.5923   -1.8579    0.0000 H       1  UNL1        0.0274
     41 H          12.2123   -1.2379    0.0000 H       1  UNL1        0.0274
     42 H           9.8602    2.3821    0.0000 H       1  UNL1        0.2921
     43 H           3.2484    1.6129    0.0000 H       1  UNL1        0.2922
     44 H           2.0024   -2.3821    0.0000 H       1  UNL1        0.2921
@<TRIPOS>BOND
     1     1    16   ar
     2     1    18   ar
     3     2    10    1
     4     2    35    1
     5     3    14    1
     6     3    42    1
     7     4    13    2
     8     5    20    1
     9     5    43    1
    10     6    24    1
    11     6    44    1
    12     7     9    1
    13     7    10   ar
    14     7    15   ar
    15     8    10   ar
    16     8    11    1
    17     8    14   ar
    18     9    13   ar
    19     9    18   ar
    20    11    19    1
    21    11    27    1
    22    11    28    1
    23    12    13   ar
    24    12    16   ar
    25    12    20   ar
    26    14    17   ar
    27    15    17   ar
    28    15    29    1
    29    16    21   ar
    30    17    30    1
    31    18    31    1
    32    19    22    2
    33    19    32    1
    34    20    23   ar
    35    21    24   ar
    36    21    33    1
    37    22    25    1
    38    22    26    1
    39    23    24   ar
    40    23    34    1
    41    25    36    1
    42    25    37    1
    43    25    38    1
    44    26    39    1
    45    26    40    1
    46    26    41    1
