@<TRIPOS>MOLECULE
IMPHY005529
 23 22 0 0 0
SMALL
GASTEIGER

@<TRIPOS>ATOM
      1 O           2.0000   -0.2500    0.0000 O.2     1  UNL1       -0.3007
      2 C           7.1962   -0.2500    0.0000 C.3     1  UNL1       -0.0499
      3 C           6.3301    0.2500    0.0000 C.3     1  UNL1       -0.0348
      4 C           8.0622    0.2500    0.0000 C.3     1  UNL1       -0.0556
      5 C           8.9282   -0.2500    0.0000 C.3     1  UNL1       -0.0653
      6 C           5.4641   -0.2500    0.0000 C.2     1  UNL1       -0.0875
      7 C           4.5981    0.2500    0.0000 C.2     1  UNL1       -0.0811
      8 C           3.7320   -0.2500    0.0000 C.3     1  UNL1        0.0209
      9 C           2.8660    0.2500    0.0000 C.2     1  UNL1        0.1240
     10 H           6.7976   -0.7249    0.0000 H       1  UNL1        0.0268
     11 H           7.5947   -0.7249    0.0000 H       1  UNL1        0.0268
     12 H           6.7287    0.7249    0.0000 H       1  UNL1        0.0307
     13 H           5.9316    0.7249    0.0000 H       1  UNL1        0.0307
     14 H           8.4607    0.7249    0.0000 H       1  UNL1        0.0263
     15 H           7.6636    0.7249    0.0000 H       1  UNL1        0.0263
     16 H           5.4641   -0.8700    0.0000 H       1  UNL1        0.0569
     17 H           8.6182   -0.7869    0.0000 H       1  UNL1        0.0230
     18 H           9.4651   -0.5600    0.0000 H       1  UNL1        0.0230
     19 H           9.2382    0.2869    0.0000 H       1  UNL1        0.0230
     20 H           4.5981    0.8700    0.0000 H       1  UNL1        0.0573
     21 H           3.3335   -0.7249    0.0000 H       1  UNL1        0.0381
     22 H           4.1306   -0.7249    0.0000 H       1  UNL1        0.0381
     23 H           2.8660    0.8700    0.0000 H       1  UNL1        0.1029
@<TRIPOS>BOND
     1     1     9    2
     2     2     3    1
     3     2     4    1
     4     2    10    1
     5     2    11    1
     6     3     6    1
     7     3    12    1
     8     3    13    1
     9     4     5    1
    10     4    14    1
    11     4    15    1
    12     5    17    1
    13     5    18    1
    14     5    19    1
    15     6     7    2
    16     6    16    1
    17     7     8    1
    18     7    20    1
    19     8     9    1
    20     8    21    1
    21     8    22    1
    22     9    23    1
