@<TRIPOS>MOLECULE
IMPHY005856
 50 54 0 0 0
SMALL
GASTEIGER

@<TRIPOS>ATOM
      1 O           7.1504    1.6734    0.0000 O.3     1  UNL1       -0.3939
      2 O           4.2494    1.4548    0.0000 O.3     1  UNL1       -0.4674
      3 O           5.8265    2.1707    0.0000 O.2     1  UNL1       -0.2501
      4 N           5.4068   -1.5777    0.0000 N.3     1  UNL1       -0.2903
      5 N           6.7907    0.8173    0.0000 N.2     1  UNL1       -0.2537
      6 C           7.2907   -0.7215    0.0000 C.3     1  UNL1        0.0569
      7 C           5.6579    0.4469    0.0000 C.3     1  UNL1        0.1119
      8 C           3.8297   -0.3830    0.0000 C.3     1  UNL1        0.0021
      9 C           5.5237   -0.5427    0.0000 C.3     1  UNL1        0.0506
     10 C           6.4817   -0.1337    0.0000 C.2     1  UNL1        0.0483
     11 C           4.7222    0.0193    0.0000 C.3     1  UNL1       -0.0243
     12 C           7.1978   -1.7590    0.0000 C.3     1  UNL1       -0.0241
     13 C           6.2495   -2.1900    0.0000 C.3     1  UNL1        0.0010
     14 C           8.0997   -0.1337    0.0000 C.ar    1  UNL1       -0.0091
     15 C           3.7199   -1.3557    0.0000 C.2     1  UNL1       -0.0554
     16 C           4.5002   -1.9468    0.0000 C.3     1  UNL1        0.0209
     17 C           6.2399    1.2601    0.0000 C.3     1  UNL1        0.0617
     18 C           5.2446    1.3574    0.0000 C.2     1  UNL1        0.3171
     19 C           7.7907    0.8173    0.0000 C.ar    1  UNL1        0.0680
     20 C           9.1151   -0.3660    0.0000 C.ar    1  UNL1       -0.0556
     21 C           2.8008   -1.7497    0.0000 C.2     1  UNL1       -0.0864
     22 C           8.4757    1.6021    0.0000 C.ar    1  UNL1       -0.0360
     23 C           9.8181    0.4027    0.0000 C.ar    1  UNL1       -0.0613
     24 C           2.0000   -1.1508    0.0000 C.3     1  UNL1       -0.0465
     25 C           9.4962    1.3934    0.0000 C.ar    1  UNL1       -0.0597
     26 C           3.8360    2.3654    0.0000 C.3     1  UNL1        0.0817
     27 H           3.1428    0.1177    0.0000 H       1  UNL1        0.0358
     28 H           5.1840    0.2365    0.0000 H       1  UNL1        0.0525
     29 H           5.1626    0.4556    0.0000 H       1  UNL1        0.0290
     30 H           4.3710    0.5302    0.0000 H       1  UNL1        0.0290
     31 H           7.3540   -2.3590    0.0000 H       1  UNL1        0.0290
     32 H           7.8157   -1.7078    0.0000 H       1  UNL1        0.0290
     33 H           5.8046   -2.6218    0.0000 H       1  UNL1        0.0427
     34 H           6.5989   -2.7022    0.0000 H       1  UNL1        0.0427
     35 H           4.0439   -2.3666    0.0000 H       1  UNL1        0.0473
     36 H           4.8322   -2.4704    0.0000 H       1  UNL1        0.0473
     37 H           6.1922    1.8783    0.0000 H       1  UNL1        0.0569
     38 H           6.6335    0.7811    0.0000 H       1  UNL1        0.0569
     39 H           9.2999   -0.9578    0.0000 H       1  UNL1        0.0621
     40 H           2.7274   -2.3654    0.0000 H       1  UNL1        0.0569
     41 H           8.2773    2.1895    0.0000 H       1  UNL1        0.0639
     42 H           7.2108    2.2905    0.0000 H       1  UNL1        0.2094
     43 H          10.4240    0.2715    0.0000 H       1  UNL1        0.0618
     44 H           2.3713   -0.6543    0.0000 H       1  UNL1        0.0272
     45 H           1.5035   -0.7795    0.0000 H       1  UNL1        0.0272
     46 H           1.6287   -1.6473    0.0000 H       1  UNL1        0.0272
     47 H           9.9093    1.8557    0.0000 H       1  UNL1        0.0618
     48 H           4.4006    2.6216    0.0000 H       1  UNL1        0.0661
     49 H           3.5798    2.9299    0.0000 H       1  UNL1        0.0661
     50 H           3.2715    2.1091    0.0000 H       1  UNL1        0.0661
@<TRIPOS>BOND
     1     1    17    1
     2     1    42    1
     3     2    18    1
     4     2    26    1
     5     3    18    2
     6     4     9    1
     7     4    13    1
     8     4    16    1
     9     5    10    2
    10     5    19    1
    11     6     7    1
    12     6    10    1
    13     6    12    1
    14     6    14    1
    15     7     8    1
    16     7    17    1
    17     7    18    1
    18     8    11    1
    19     8    15    1
    20     8    27    1
    21     9    10    1
    22     9    11    1
    23     9    28    1
    24    11    29    1
    25    11    30    1
    26    12    13    1
    27    12    31    1
    28    12    32    1
    29    13    33    1
    30    13    34    1
    31    14    19   ar
    32    14    20   ar
    33    15    16    1
    34    15    21    2
    35    16    35    1
    36    16    36    1
    37    17    37    1
    38    17    38    1
    39    19    22   ar
    40    20    23   ar
    41    20    39    1
    42    21    24    1
    43    21    40    1
    44    22    25   ar
    45    22    41    1
    46    23    25   ar
    47    23    43    1
    48    24    44    1
    49    24    45    1
    50    24    46    1
    51    25    47    1
    52    26    48    1
    53    26    49    1
    54    26    50    1
