@<TRIPOS>MOLECULE
IMPHY014138
 92 99 0 0 0
SMALL
GASTEIGER

@<TRIPOS>ATOM
      1 O           5.2760    1.9158    0.0000 O.3     1  UNL1       -0.3578
      2 O           9.4103    2.8452    0.0000 O.3     1  UNL1       -0.3329
      3 O           3.6747    0.7351    0.0000 O.3     1  UNL1       -0.3730
      4 O           7.2817   -1.4258    0.0000 O.3     1  UNL1       -0.3391
      5 O           4.7578    1.7319    0.0000 O.3     1  UNL1       -0.3886
      6 O           6.4116   -2.4424    0.0000 O.3     1  UNL1       -0.4573
      7 O           8.3560   -0.7264    0.0000 O.3     1  UNL1       -0.3560
      8 O           7.2785    4.1458    0.0000 O.3     1  UNL1       -0.3778
      9 O           9.7029    4.7198    0.0000 O.2     1  UNL1       -0.4680
     10 O           2.8718   -2.4560    0.0000 O.3     1  UNL1       -0.4608
     11 O           9.0845   -0.4420    0.0000 O.3     1  UNL1       -0.4642
     12 O           8.0689    0.9610    0.0000 O.2     1  UNL1       -0.2447
     13 O           5.5630   -3.9523    0.0000 O.2     1  UNL1       -0.2453
     14 O           3.7320   -3.9593    0.0000 O.2     1  UNL1       -0.2512
     15 C           6.2162    1.5739    0.0000 C.3     1  UNL1        0.1334
     16 C           6.3898    0.5891    0.0000 C.3     1  UNL1        0.0394
     17 C           6.0425    2.5587    0.0000 C.3     1  UNL1        0.1055
     18 C           6.3898   -0.4109    0.0000 C.3     1  UNL1        0.0462
     19 C           5.5238   -0.9109    0.0000 C.3     1  UNL1        0.0462
     20 C           7.6991    1.7040    0.0000 C.3     1  UNL1        0.0955
     21 C           7.5254    2.6888    0.0000 C.3     1  UNL1        0.0316
     22 C           4.6578   -0.4109    0.0000 C.3     1  UNL1        0.0102
     23 C           5.5238    1.0891    0.0000 C.3     1  UNL1        0.0902
     24 C           4.6578    0.5891    0.0000 C.3     1  UNL1        0.0893
     25 C           8.7820    1.1247    0.0000 C.3     1  UNL1       -0.0149
     26 C           3.7478   -0.9178    0.0000 C.3     1  UNL1        0.0343
     27 C           7.3616   -0.6201    0.0000 C.3     1  UNL1        0.2720
     28 C           5.5399   -1.9524    0.0000 C.3     1  UNL1        0.1153
     29 C           8.2662    3.9894    0.0000 C.3     1  UNL1        0.1545
     30 C           7.3898    0.5891    0.0000 C.3     1  UNL1       -0.0538
     31 C           6.1909   -1.6479    0.0000 C.3     1  UNL1        0.0613
     32 C           5.8689    3.5435    0.0000 C.3     1  UNL1       -0.0326
     33 C           3.7398   -1.9594    0.0000 C.3     1  UNL1        0.1142
     34 C           9.2539    3.8329    0.0000 C.3     1  UNL1        0.2342
     35 C           3.1610   -0.1157    0.0000 C.3     1  UNL1        0.0572
     36 C           4.6418   -2.4802    0.0000 C.3     1  UNL1        0.0228
     37 C           2.7478   -0.9062    0.0000 C.3     1  UNL1       -0.0537
     38 C           8.1133    4.9716    0.0000 C.2     1  UNL1       -0.0121
     39 C           8.1717   -0.0337    0.0000 C.2     1  UNL1        0.3675
     40 C           8.9994    5.4221    0.0000 C.2     1  UNL1        0.0870
     41 C           6.4232   -3.4423    0.0000 C.2     1  UNL1        0.3348
     42 C           2.8680   -3.4560    0.0000 C.2     1  UNL1        0.3042
     43 C           9.8946    0.1443    0.0000 C.3     1  UNL1        0.0818
     44 C           7.2949   -3.9322    0.0000 C.2     1  UNL1        0.0293
     45 C           2.0000   -3.9527    0.0000 C.3     1  UNL1        0.0332
     46 C           8.1551   -3.4223    0.0000 C.3     1  UNL1       -0.0333
     47 C           7.3065   -4.9322    0.0000 C.2     1  UNL1       -0.0774
     48 C           8.1782   -5.4221    0.0000 C.3     1  UNL1       -0.0461
     49 H           7.0511    0.1232    0.0000 H       1  UNL1        0.0373
     50 H           8.3184    1.7340    0.0000 H       1  UNL1        0.0627
     51 H           7.3778    3.5259    0.0000 H       1  UNL1        0.0363
     52 H           4.6578   -1.2609    0.0000 H       1  UNL1        0.0341
     53 H           5.8794    1.5970    0.0000 H       1  UNL1        0.0626
     54 H           4.4988    1.4241    0.0000 H       1  UNL1        0.0625
     55 H           8.7189    0.5079    0.0000 H       1  UNL1        0.0296
     56 H           9.3765    1.3005    0.0000 H       1  UNL1        0.0296
     57 H           5.5458   -2.5724    0.0000 H       1  UNL1        0.0742
     58 H           7.3898   -0.0309    0.0000 H       1  UNL1        0.0237
     59 H           8.0098    0.5891    0.0000 H       1  UNL1        0.0237
     60 H           7.3898    1.2091    0.0000 H       1  UNL1        0.0237
     61 H           5.6647   -1.9759    0.0000 H       1  UNL1        0.0568
     62 H           6.4204   -2.2239    0.0000 H       1  UNL1        0.0568
     63 H           6.4795    3.6512    0.0000 H       1  UNL1        0.0258
     64 H           5.7612    4.1541    0.0000 H       1  UNL1        0.0258
     65 H           5.2583    3.4358    0.0000 H       1  UNL1        0.0258
     66 H           3.7386   -2.5793    0.0000 H       1  UNL1        0.0741
     67 H          10.0934    3.7000    0.0000 H       1  UNL1        0.1090
     68 H           2.6770    0.2719    0.0000 H       1  UNL1        0.0567
     69 H           2.7131   -0.5444    0.0000 H       1  UNL1        0.0567
     70 H           4.2445   -2.9561    0.0000 H       1  UNL1        0.0337
     71 H           5.0428   -2.9531    0.0000 H       1  UNL1        0.0337
     72 H           2.7550   -0.2862    0.0000 H       1  UNL1        0.0237
     73 H           2.1279   -0.8990    0.0000 H       1  UNL1        0.0237
     74 H           2.7407   -1.5261    0.0000 H       1  UNL1        0.0237
     75 H           4.1752    1.5198    0.0000 H       1  UNL1        0.2099
     76 H           7.5613    5.2540    0.0000 H       1  UNL1        0.0633
     77 H           8.6072   -1.2932    0.0000 H       1  UNL1        0.2133
     78 H           7.0563    4.7246    0.0000 H       1  UNL1        0.2109
     79 H           9.0964    6.0345    0.0000 H       1  UNL1        0.1022
     80 H          10.2581   -0.3579    0.0000 H       1  UNL1        0.0661
     81 H          10.3968    0.5079    0.0000 H       1  UNL1        0.0661
     82 H           9.5310    0.6466    0.0000 H       1  UNL1        0.0661
     83 H           1.6921   -3.4145    0.0000 H       1  UNL1        0.0342
     84 H           1.4619   -4.2606    0.0000 H       1  UNL1        0.0342
     85 H           2.3079   -4.4908    0.0000 H       1  UNL1        0.0342
     86 H           8.4713   -3.9556    0.0000 H       1  UNL1        0.0280
     87 H           8.6884   -3.1061    0.0000 H       1  UNL1        0.0280
     88 H           7.8389   -2.8890    0.0000 H       1  UNL1        0.0280
     89 H           6.7732   -5.2484    0.0000 H       1  UNL1        0.0574
     90 H           7.8745   -5.9626    0.0000 H       1  UNL1        0.0272
     91 H           8.7187   -5.7259    0.0000 H       1  UNL1        0.0272
     92 H           8.4820   -4.8816    0.0000 H       1  UNL1        0.0272
@<TRIPOS>BOND
     1    15     1    1
     2     1    17    1
     3     2    20    1
     4     2    34    1
     5     3    24    1
     6     3    35    1
     7     4    27    1
     8     4    31    1
     9    23     5    1
    10     5    75    1
    11    28     6    1
    12     6    41    1
    13    27     7    1
    14     7    77    1
    15    29     8    1
    16     8    78    1
    17     9    34    1
    18     9    40    1
    19    33    10    1
    20    10    42    1
    21    11    39    1
    22    11    43    1
    23    12    39    2
    24    13    41    2
    25    14    42    2
    26    15    16    1
    27    15    17    1
    28    15    20    1
    29    16    18    1
    30    16    23    1
    31    16    30    1
    32    17    21    1
    33    17    32    1
    34    18    19    1
    35    18    27    1
    36    18    49    1
    37    19    22    1
    38    19    28    1
    39    19    31    1
    40    20    25    1
    41    20    50    1
    42    21    25    1
    43    21    29    1
    44    21    51    1
    45    22    24    1
    46    22    26    1
    47    22    52    1
    48    23    24    1
    49    23    53    1
    50    24    54    1
    51    25    55    1
    52    25    56    1
    53    26    33    1
    54    26    35    1
    55    26    37    1
    56    27    39    1
    57    28    36    1
    58    28    57    1
    59    29    34    1
    60    29    38    1
    61    30    58    1
    62    30    59    1
    63    30    60    1
    64    31    61    1
    65    31    62    1
    66    32    63    1
    67    32    64    1
    68    32    65    1
    69    33    36    1
    70    33    66    1
    71    34    67    1
    72    35    68    1
    73    35    69    1
    74    36    70    1
    75    36    71    1
    76    37    72    1
    77    37    73    1
    78    37    74    1
    79    38    40    2
    80    38    76    1
    81    40    79    1
    82    41    44    1
    83    42    45    1
    84    43    80    1
    85    43    81    1
    86    43    82    1
    87    44    46    1
    88    44    47    2
    89    45    83    1
    90    45    84    1
    91    45    85    1
    92    46    86    1
    93    46    87    1
    94    46    88    1
    95    47    48    1
    96    47    89    1
    97    48    90    1
    98    48    91    1
    99    48    92    1
