@<TRIPOS>MOLECULE
IMPHY011548
 42 41 0 0 0
SMALL
GASTEIGER

@<TRIPOS>ATOM
      1 O           2.5369   -1.0600    0.0000 O.3     1  UNL1       -0.3757
      2 C          12.0632    2.4400    0.0000 C.3     1  UNL1       -0.0531
      3 C          11.1972    1.9400    0.0000 C.3     1  UNL1       -0.0528
      4 C          12.9292    1.9400    0.0000 C.3     1  UNL1       -0.0533
      5 C          10.3312    2.4400    0.0000 C.3     1  UNL1       -0.0496
      6 C          13.7953    2.4400    0.0000 C.3     1  UNL1       -0.0559
      7 C           9.4651    1.9400    0.0000 C.3     1  UNL1       -0.0347
      8 C          14.6613    1.9400    0.0000 C.3     1  UNL1       -0.0653
      9 C           8.5991    2.4400    0.0000 C.2     1  UNL1       -0.0870
     10 C           7.7331    1.9400    0.0000 C.2     1  UNL1       -0.0762
     11 C           7.7331    0.9400    0.0000 C.3     1  UNL1        0.0282
     12 C           6.8671    0.4400    0.0000 C.1     1  UNL1       -0.0843
     13 C           6.0010   -0.0600    0.0000 C.1     1  UNL1       -0.0144
     14 C           3.4030   -1.5600    0.0000 C.3     1  UNL1        0.1348
     15 C           5.1350   -0.5600    0.0000 C.1     1  UNL1       -0.0119
     16 C           4.2690   -1.0600    0.0000 C.1     1  UNL1       -0.0529
     17 C           3.4030   -2.5600    0.0000 C.2     1  UNL1       -0.0510
     18 C           4.2690   -3.0600    0.0000 C.2     1  UNL1       -0.0993
     19 H          12.4617    2.9150    0.0000 H       1  UNL1        0.0265
     20 H          11.6647    2.9150    0.0000 H       1  UNL1        0.0265
     21 H          10.7987    1.4650    0.0000 H       1  UNL1        0.0265
     22 H          11.5957    1.4650    0.0000 H       1  UNL1        0.0265
     23 H          12.5307    1.4650    0.0000 H       1  UNL1        0.0265
     24 H          13.3278    1.4650    0.0000 H       1  UNL1        0.0265
     25 H          10.7297    2.9150    0.0000 H       1  UNL1        0.0268
     26 H           9.9326    2.9150    0.0000 H       1  UNL1        0.0268
     27 H          14.1938    2.9150    0.0000 H       1  UNL1        0.0263
     28 H          13.3967    2.9150    0.0000 H       1  UNL1        0.0263
     29 H           9.0666    1.4650    0.0000 H       1  UNL1        0.0307
     30 H           9.8637    1.4650    0.0000 H       1  UNL1        0.0307
     31 H          14.3513    1.4031    0.0000 H       1  UNL1        0.0230
     32 H          15.1982    1.6300    0.0000 H       1  UNL1        0.0230
     33 H          14.9713    2.4769    0.0000 H       1  UNL1        0.0230
     34 H           8.5991    3.0600    0.0000 H       1  UNL1        0.0569
     35 H           7.1962    2.2500    0.0000 H       1  UNL1        0.0578
     36 H           7.9451    0.3574    0.0000 H       1  UNL1        0.0441
     37 H           8.3437    1.0477    0.0000 H       1  UNL1        0.0441
     38 H           3.4030   -0.9400    0.0000 H       1  UNL1        0.0777
     39 H           2.8660   -2.8700    0.0000 H       1  UNL1        0.0601
     40 H           2.0000   -1.3700    0.0000 H       1  UNL1        0.2114
     41 H           4.2690   -3.6800    0.0000 H       1  UNL1        0.0533
     42 H           4.8059   -2.7500    0.0000 H       1  UNL1        0.0533
@<TRIPOS>BOND
     1    14     1    1
     2     1    40    1
     3     2     3    1
     4     2     4    1
     5     2    19    1
     6     2    20    1
     7     3     5    1
     8     3    21    1
     9     3    22    1
    10     4     6    1
    11     4    23    1
    12     4    24    1
    13     5     7    1
    14     5    25    1
    15     5    26    1
    16     6     8    1
    17     6    27    1
    18     6    28    1
    19     7     9    1
    20     7    29    1
    21     7    30    1
    22     8    31    1
    23     8    32    1
    24     8    33    1
    25     9    10    2
    26     9    34    1
    27    10    11    1
    28    10    35    1
    29    11    12    1
    30    11    36    1
    31    11    37    1
    32    12    13    3
    33    13    15    1
    34    14    16    1
    35    14    17    1
    36    14    38    1
    37    15    16    3
    38    17    18    2
    39    17    39    1
    40    18    41    1
    41    18    42    1
