@<TRIPOS>MOLECULE
IMPHY013697
 167 175 0 0 0
SMALL
GASTEIGER

@<TRIPOS>ATOM
      1 O          15.8582    3.5406    0.0000 O.3     1  UNL1       -0.3449
      2 O          11.1972   -3.8079    0.0000 O.3     1  UNL1       -0.3947
      3 O          15.5206    5.2395    0.0000 O.3     1  UNL1       -0.3405
      4 O          13.8965    3.1508    0.0000 O.3     1  UNL1       -0.3841
      5 O          12.5782    4.6548    0.0000 O.3     1  UNL1       -0.3864
      6 O          13.2214    6.5485    0.0000 O.3     1  UNL1       -0.3865
      7 O          16.1639    7.1332    0.0000 O.3     1  UNL1       -0.3460
      8 O           9.4651   -6.8079    0.0000 O.3     1  UNL1       -0.3444
      9 O          17.4664    8.2750    0.0000 O.3     1  UNL1       -0.3405
     10 O           7.7331   -6.8079    0.0000 O.3     1  UNL1       -0.3405
     11 O          14.8455    8.6372    0.0000 O.3     1  UNL1       -0.3841
     12 O          15.4888   10.5309    0.0000 O.3     1  UNL1       -0.3864
     13 O           9.4651   -4.8079    0.0000 O.3     1  UNL1       -0.3841
     14 O          17.4504   10.9207    0.0000 O.3     1  UNL1       -0.3865
     15 O           7.7331   -3.8079    0.0000 O.3     1  UNL1       -0.3864
     16 O          19.4280    8.6647    0.0000 O.3     1  UNL1       -0.3924
     17 O           6.0010   -4.8079    0.0000 O.3     1  UNL1       -0.3865
     18 O           6.0010   -7.8079    0.0000 O.3     1  UNL1       -0.3460
     19 O           4.2690   -7.8079    0.0000 O.3     1  UNL1       -0.3405
     20 O           6.0010   -9.8079    0.0000 O.3     1  UNL1       -0.3841
     21 O           4.2690  -10.8079    0.0000 O.3     1  UNL1       -0.3864
     22 O           2.5369   -9.8079    0.0000 O.3     1  UNL1       -0.3865
     23 O           2.5369   -6.8079    0.0000 O.3     1  UNL1       -0.3924
     24 C          14.5757   -0.3213    0.0000 C.3     1  UNL1       -0.0194
     25 C          14.8937    0.6268    0.0000 C.3     1  UNL1       -0.0193
     26 C          13.9131    0.4283    0.0000 C.3     1  UNL1       -0.0401
     27 C          15.2378   -1.0707    0.0000 C.3     1  UNL1       -0.0289
     28 C          15.8738    0.8255    0.0000 C.3     1  UNL1       -0.0273
     29 C          14.9219   -2.0632    0.0000 C.3     1  UNL1       -0.0231
     30 C          13.5518   -0.5124    0.0000 C.3     1  UNL1       -0.0460
     31 C          13.9026   -2.2780    0.0000 C.3     1  UNL1       -0.0232
     32 C          14.1921    1.3967    0.0000 C.3     1  UNL1       -0.0442
     33 C          16.2179   -0.8720    0.0000 C.3     1  UNL1       -0.0489
     34 C          16.5359    0.0761    0.0000 C.3     1  UNL1       -0.0488
     35 C          13.2130   -1.4974    0.0000 C.3     1  UNL1       -0.0463
     36 C          16.2202    1.8078    0.0000 C.3     1  UNL1       -0.0052
     37 C          13.7953   -3.3079    0.0000 C.3     1  UNL1       -0.0302
     38 C          15.4357   -2.9622    0.0000 C.3     1  UNL1       -0.0466
     39 C          14.5157    2.3868    0.0000 C.3     1  UNL1       -0.0255
     40 C          15.5366    2.5938    0.0000 C.3     1  UNL1        0.0672
     41 C          14.7408   -3.7299    0.0000 C.3     1  UNL1       -0.0489
     42 C          15.9004   -1.8570    0.0000 C.3     1  UNL1       -0.0588
     43 C          12.9241   -2.4843    0.0000 C.3     1  UNL1       -0.0588
     44 C          12.9292   -3.8079    0.0000 C.3     1  UNL1       -0.0142
     45 C          16.9772    2.4612    0.0000 C.3     1  UNL1       -0.0572
     46 C          17.1645    1.4789    0.0000 C.3     1  UNL1       -0.0572
     47 C          12.9292   -4.8079    0.0000 C.3     1  UNL1       -0.0444
     48 C          12.0632   -3.3079    0.0000 C.3     1  UNL1        0.0473
     49 C          15.1990    4.2926    0.0000 C.3     1  UNL1        0.1882
     50 C          12.0632   -5.3079    0.0000 C.3     1  UNL1       -0.0341
     51 C          14.2182    4.0977    0.0000 C.3     1  UNL1        0.1341
     52 C          13.5590    4.8497    0.0000 C.3     1  UNL1        0.1141
     53 C          12.0632   -6.3079    0.0000 C.2     1  UNL1       -0.0829
     54 C          14.8614    5.9915    0.0000 C.3     1  UNL1        0.1134
     55 C          13.8806    5.7966    0.0000 C.3     1  UNL1        0.1119
     56 C          11.1972   -6.8079    0.0000 C.2     1  UNL1       -0.0511
     57 C          15.1831    6.9383    0.0000 C.3     1  UNL1        0.0796
     58 C          10.3312   -6.3079    0.0000 C.3     1  UNL1        0.0716
     59 C          11.1972   -7.8079    0.0000 C.3     1  UNL1       -0.0416
     60 C          16.4855    8.0801    0.0000 C.3     1  UNL1        0.1880
     61 C          15.8263    8.8320    0.0000 C.3     1  UNL1        0.1341
     62 C           8.5991   -6.3079    0.0000 C.3     1  UNL1        0.1883
     63 C          16.1480    9.7789    0.0000 C.3     1  UNL1        0.1141
     64 C          17.7880    9.2218    0.0000 C.3     1  UNL1        0.1130
     65 C           8.5991   -5.3079    0.0000 C.3     1  UNL1        0.1341
     66 C          17.1288    9.9738    0.0000 C.3     1  UNL1        0.1119
     67 C           7.7331   -4.8079    0.0000 C.3     1  UNL1        0.1141
     68 C           6.8671   -6.3079    0.0000 C.3     1  UNL1        0.1134
     69 C          18.7688    9.4167    0.0000 C.3     1  UNL1        0.0730
     70 C           6.8671   -5.3079    0.0000 C.3     1  UNL1        0.1119
     71 C           6.0010   -6.8079    0.0000 C.3     1  UNL1        0.0796
     72 C           5.1350   -8.3079    0.0000 C.3     1  UNL1        0.1880
     73 C           5.1350   -9.3079    0.0000 C.3     1  UNL1        0.1341
     74 C           4.2690   -9.8079    0.0000 C.3     1  UNL1        0.1141
     75 C           3.4030   -8.3079    0.0000 C.3     1  UNL1        0.1130
     76 C           3.4030   -9.3079    0.0000 C.3     1  UNL1        0.1119
     77 C           2.5369   -7.8079    0.0000 C.3     1  UNL1        0.0730
     78 H          13.6864    1.0054    0.0000 H       1  UNL1        0.0276
     79 H          13.3843    0.1047    0.0000 H       1  UNL1        0.0276
     80 H          15.6519   -1.5322    0.0000 H       1  UNL1        0.0312
     81 H          16.4823    0.9440    0.0000 H       1  UNL1        0.0312
     82 H          13.5440    0.1075    0.0000 H       1  UNL1        0.0271
     83 H          12.9396   -0.4141    0.0000 H       1  UNL1        0.0271
     84 H          13.6444    1.6874    0.0000 H       1  UNL1        0.0272
     85 H          13.8121    0.9069    0.0000 H       1  UNL1        0.0272
     86 H          16.2337   -1.4918    0.0000 H       1  UNL1        0.0268
     87 H          16.8310   -0.9641    0.0000 H       1  UNL1        0.0268
     88 H          17.0805   -0.2202    0.0000 H       1  UNL1        0.0268
     89 H          16.9222    0.5610    0.0000 H       1  UNL1        0.0268
     90 H          12.6698   -1.1984    0.0000 H       1  UNL1        0.0271
     91 H          12.8254   -1.9814    0.0000 H       1  UNL1        0.0271
     92 H          13.8274   -3.9271    0.0000 H       1  UNL1        0.0310
     93 H          15.8491   -3.4243    0.0000 H       1  UNL1        0.0271
     94 H          15.9387   -2.5997    0.0000 H       1  UNL1        0.0271
     95 H          14.4983    3.0066    0.0000 H       1  UNL1        0.0290
     96 H          13.9021    2.4758    0.0000 H       1  UNL1        0.0290
     97 H          16.1449    2.7134    0.0000 H       1  UNL1        0.0602
     98 H          14.4301   -4.2664    0.0000 H       1  UNL1        0.0268
     99 H          15.2417   -4.0954    0.0000 H       1  UNL1        0.0268
    100 H          16.0282   -2.4637    0.0000 H       1  UNL1        0.0235
    101 H          16.5070   -1.7292    0.0000 H       1  UNL1        0.0235
    102 H          15.7725   -1.2504    0.0000 H       1  UNL1        0.0235
    103 H          12.7962   -1.8776    0.0000 H       1  UNL1        0.0235
    104 H          12.3174   -2.6121    0.0000 H       1  UNL1        0.0235
    105 H          13.0520   -3.0909    0.0000 H       1  UNL1        0.0235
    106 H          12.3923   -4.1179    0.0000 H       1  UNL1        0.0326
    107 H          17.3823    1.9919    0.0000 H       1  UNL1        0.0236
    108 H          17.4466    2.8663    0.0000 H       1  UNL1        0.0236
    109 H          16.5721    2.9306    0.0000 H       1  UNL1        0.0236
    110 H          16.9606    0.8934    0.0000 H       1  UNL1        0.0236
    111 H          17.7500    1.2750    0.0000 H       1  UNL1        0.0236
    112 H          17.3685    2.0644    0.0000 H       1  UNL1        0.0236
    113 H          13.1413   -5.3905    0.0000 H       1  UNL1        0.0272
    114 H          13.5398   -4.7003    0.0000 H       1  UNL1        0.0272
    115 H          12.4617   -2.8330    0.0000 H       1  UNL1        0.0560
    116 H          11.6647   -2.8330    0.0000 H       1  UNL1        0.0560
    117 H          14.9996    3.7056    0.0000 H       1  UNL1        0.0937
    118 H          11.8512   -4.7253    0.0000 H       1  UNL1        0.0308
    119 H          11.4526   -5.4156    0.0000 H       1  UNL1        0.0308
    120 H          13.6101    3.9769    0.0000 H       1  UNL1        0.0671
    121 H          10.6603   -3.4979    0.0000 H       1  UNL1        0.2094
    122 H          13.1503    5.3159    0.0000 H       1  UNL1        0.0648
    123 H          12.6002   -6.6179    0.0000 H       1  UNL1        0.0572
    124 H          15.4696    6.1123    0.0000 H       1  UNL1        0.0647
    125 H          13.2725    5.6757    0.0000 H       1  UNL1        0.0647
    126 H          13.2884    3.0300    0.0000 H       1  UNL1        0.2101
    127 H          15.1697    7.5582    0.0000 H       1  UNL1        0.0587
    128 H          14.5703    7.0328    0.0000 H       1  UNL1        0.0587
    129 H          12.1695    5.1210    0.0000 H       1  UNL1        0.2100
    130 H          13.4208    7.1356    0.0000 H       1  UNL1        0.2100
    131 H          10.7297   -5.8330    0.0000 H       1  UNL1        0.0608
    132 H           9.9326   -5.8330    0.0000 H       1  UNL1        0.0608
    133 H          10.5772   -7.8079    0.0000 H       1  UNL1        0.0275
    134 H          11.1972   -8.4279    0.0000 H       1  UNL1        0.0275
    135 H          11.8172   -7.8079    0.0000 H       1  UNL1        0.0275
    136 H          15.8774    7.9592    0.0000 H       1  UNL1        0.0937
    137 H          15.4176    9.2983    0.0000 H       1  UNL1        0.0671
    138 H           8.5991   -6.9279    0.0000 H       1  UNL1        0.0938
    139 H          16.3474   10.3660    0.0000 H       1  UNL1        0.0648
    140 H          18.1967    8.7556    0.0000 H       1  UNL1        0.0647
    141 H           8.5991   -4.6879    0.0000 H       1  UNL1        0.0671
    142 H          17.7369   10.0946    0.0000 H       1  UNL1        0.0647
    143 H          14.4368    9.1034    0.0000 H       1  UNL1        0.2101
    144 H           7.1962   -4.4979    0.0000 H       1  UNL1        0.0648
    145 H           6.8671   -6.9279    0.0000 H       1  UNL1        0.0647
    146 H          19.2989    9.7382    0.0000 H       1  UNL1        0.0584
    147 H          18.5442    9.9946    0.0000 H       1  UNL1        0.0584
    148 H           6.3301   -5.6179    0.0000 H       1  UNL1        0.0647
    149 H          15.6882   11.1179    0.0000 H       1  UNL1        0.2100
    150 H           9.4651   -4.1879    0.0000 H       1  UNL1        0.2101
    151 H          18.0585   11.0415    0.0000 H       1  UNL1        0.2100
    152 H           5.7890   -6.2253    0.0000 H       1  UNL1        0.0587
    153 H           5.3905   -6.9156    0.0000 H       1  UNL1        0.0587
    154 H           8.2700   -3.4979    0.0000 H       1  UNL1        0.2100
    155 H          20.0361    8.7856    0.0000 H       1  UNL1        0.2095
    156 H           6.0010   -4.1879    0.0000 H       1  UNL1        0.2100
    157 H           5.1350   -7.6879    0.0000 H       1  UNL1        0.0937
    158 H           5.1350   -9.9279    0.0000 H       1  UNL1        0.0671
    159 H           3.7320  -10.1179    0.0000 H       1  UNL1        0.0648
    160 H           3.4030   -7.6879    0.0000 H       1  UNL1        0.0647
    161 H           3.4030   -9.9279    0.0000 H       1  UNL1        0.0647
    162 H           6.5380   -9.4979    0.0000 H       1  UNL1        0.2101
    163 H           1.9264   -7.7003    0.0000 H       1  UNL1        0.0584
    164 H           2.3249   -8.3905    0.0000 H       1  UNL1        0.0584
    165 H           3.7320  -11.1179    0.0000 H       1  UNL1        0.2100
    166 H           2.0000   -9.4979    0.0000 H       1  UNL1        0.2100
    167 H           2.0000   -6.4979    0.0000 H       1  UNL1        0.2095
@<TRIPOS>BOND
     1     1    40    1
     2     1    49    1
     3     2    48    1
     4     2   121    1
     5     3    49    1
     6     3    54    1
     7     4    51    1
     8     4   126    1
     9     5    52    1
    10     5   129    1
    11     6    55    1
    12     6   130    1
    13     7    57    1
    14     7    60    1
    15     8    58    1
    16     8    62    1
    17     9    60    1
    18     9    64    1
    19    10    62    1
    20    10    68    1
    21    11    61    1
    22    11   143    1
    23    12    63    1
    24    12   149    1
    25    13    65    1
    26    13   150    1
    27    14    66    1
    28    14   151    1
    29    15    67    1
    30    15   154    1
    31    16    69    1
    32    16   155    1
    33    17    70    1
    34    17   156    1
    35    18    71    1
    36    18    72    1
    37    19    72    1
    38    19    75    1
    39    20    73    1
    40    20   162    1
    41    21    74    1
    42    21   165    1
    43    22    76    1
    44    22   166    1
    45    23    77    1
    46    23   167    1
    47    24    25    1
    48    24    26    1
    49    24    27    1
    50    24    30    1
    51    25    26    1
    52    25    28    1
    53    25    32    1
    54    26    78    1
    55    26    79    1
    56    27    29    1
    57    27    33    1
    58    27    80    1
    59    28    34    1
    60    28    36    1
    61    28    81    1
    62    29    31    1
    63    29    38    1
    64    29    42    1
    65    30    35    1
    66    30    82    1
    67    30    83    1
    68    31    35    1
    69    31    37    1
    70    31    43    1
    71    32    39    1
    72    32    84    1
    73    32    85    1
    74    33    34    1
    75    33    86    1
    76    33    87    1
    77    34    88    1
    78    34    89    1
    79    35    90    1
    80    35    91    1
    81    36    40    1
    82    36    45    1
    83    36    46    1
    84    37    41    1
    85    37    44    1
    86    37    92    1
    87    38    41    1
    88    38    93    1
    89    38    94    1
    90    39    40    1
    91    39    95    1
    92    39    96    1
    93    40    97    1
    94    41    98    1
    95    41    99    1
    96    42   100    1
    97    42   101    1
    98    42   102    1
    99    43   103    1
   100    43   104    1
   101    43   105    1
   102    44    47    1
   103    44    48    1
   104    44   106    1
   105    45   107    1
   106    45   108    1
   107    45   109    1
   108    46   110    1
   109    46   111    1
   110    46   112    1
   111    47    50    1
   112    47   113    1
   113    47   114    1
   114    48   115    1
   115    48   116    1
   116    49    51    1
   117    49   117    1
   118    50    53    1
   119    50   118    1
   120    50   119    1
   121    51    52    1
   122    51   120    1
   123    52    55    1
   124    52   122    1
   125    53    56    2
   126    53   123    1
   127    54    55    1
   128    54    57    1
   129    54   124    1
   130    55   125    1
   131    56    58    1
   132    56    59    1
   133    57   127    1
   134    57   128    1
   135    58   131    1
   136    58   132    1
   137    59   133    1
   138    59   134    1
   139    59   135    1
   140    60    61    1
   141    60   136    1
   142    61    63    1
   143    61   137    1
   144    62    65    1
   145    62   138    1
   146    63    66    1
   147    63   139    1
   148    64    66    1
   149    64    69    1
   150    64   140    1
   151    65    67    1
   152    65   141    1
   153    66   142    1
   154    67    70    1
   155    67   144    1
   156    68    70    1
   157    68    71    1
   158    68   145    1
   159    69   146    1
   160    69   147    1
   161    70   148    1
   162    71   152    1
   163    71   153    1
   164    72    73    1
   165    72   157    1
   166    73    74    1
   167    73   158    1
   168    74    76    1
   169    74   159    1
   170    75    76    1
   171    75    77    1
   172    75   160    1
   173    76   161    1
   174    77   163    1
   175    77   164    1
