@<TRIPOS>MOLECULE
IMPHY000541
 5 5 0 0 0
SMALL
GASTEIGER

@<TRIPOS>ATOM
      1 N           0.8078    1.5393    0.0000 N.2     1  UNL1       -0.1791
      2 N           1.6174    0.9510    0.0000 N.2     1  UNL1       -0.1791
      3 C           0.0000    0.9510    0.0000 C.3     1  UNL1        0.1508
      4 C           1.3082    0.0000    0.0000 C.3     1  UNL1        0.1508
      5 C           0.3078    0.0000    0.0000 C.3     1  UNL1        0.0565
@<TRIPOS>BOND
     1     1     2    2
     2     1     3    1
     3     2     4    1
     4     3     5    1
     5     4     5    1
