@<TRIPOS>MOLECULE
IMPHY004462
 43 45 0 0 0
SMALL
GASTEIGER

@<TRIPOS>ATOM
      1 O           5.1350   -0.6296    0.0000 O.3     1  UNL1       -0.3313
      2 O           6.8671   -0.6296    0.0000 O.3     1  UNL1       -0.4606
      3 O           5.1350   -3.6296    0.0000 O.3     1  UNL1       -0.3864
      4 O           3.4030   -2.6296    0.0000 O.3     1  UNL1       -0.3865
      5 O           6.8671   -2.6296    0.0000 O.3     1  UNL1       -0.3829
      6 O           2.5369   -1.1296    0.0000 O.3     1  UNL1       -0.3924
      7 O           8.6431    2.3772    0.0000 O.2     1  UNL1       -0.4595
      8 O           5.1350    2.3704    0.0000 O.3     1  UNL1       -0.5058
      9 O           5.9793    3.9018    0.0000 O.2     1  UNL1       -0.2869
     10 C           5.1350   -2.6296    0.0000 C.3     1  UNL1        0.1152
     11 C           4.2690   -2.1296    0.0000 C.3     1  UNL1        0.1120
     12 C           6.0010   -2.1296    0.0000 C.3     1  UNL1        0.1454
     13 C           4.2690   -1.1296    0.0000 C.3     1  UNL1        0.1140
     14 C           6.0010   -1.1296    0.0000 C.3     1  UNL1        0.2308
     15 C           3.4030   -0.6296    0.0000 C.3     1  UNL1        0.0731
     16 C           6.8671    0.3704    0.0000 C.ar    1  UNL1        0.1310
     17 C           7.7331    0.8704    0.0000 C.ar    1  UNL1        0.0234
     18 C           6.0010    0.8704    0.0000 C.ar    1  UNL1        0.0226
     19 C           7.7331    1.8704    0.0000 C.ar    1  UNL1        0.1457
     20 C           6.8671    2.3704    0.0000 C.ar    1  UNL1        0.1054
     21 C           6.0010    1.8704    0.0000 C.ar    1  UNL1        0.1347
     22 C           6.8510    3.4119    0.0000 C.ar    1  UNL1        0.1963
     23 C           8.6511    3.4188    0.0000 C.ar    1  UNL1        0.1062
     24 C           7.7490    3.9396    0.0000 C.ar    1  UNL1        0.0237
     25 C           9.5191    3.9155    0.0000 C.3     1  UNL1       -0.0062
     26 H           4.5981   -2.9396    0.0000 H       1  UNL1        0.0648
     27 H           4.2690   -2.7496    0.0000 H       1  UNL1        0.0647
     28 H           6.0010   -2.7496    0.0000 H       1  UNL1        0.0683
     29 H           4.2690   -0.5096    0.0000 H       1  UNL1        0.0647
     30 H           6.5380   -1.4396    0.0000 H       1  UNL1        0.1084
     31 H           3.8015   -0.1547    0.0000 H       1  UNL1        0.0584
     32 H           3.0044   -0.1547    0.0000 H       1  UNL1        0.0584
     33 H           4.5981   -3.9396    0.0000 H       1  UNL1        0.2100
     34 H           3.4030   -3.2496    0.0000 H       1  UNL1        0.2100
     35 H           6.8671   -3.2496    0.0000 H       1  UNL1        0.2102
     36 H           2.0000   -0.8196    0.0000 H       1  UNL1        0.2095
     37 H           8.2700    0.5604    0.0000 H       1  UNL1        0.0691
     38 H           5.4641    0.5604    0.0000 H       1  UNL1        0.0691
     39 H           7.7466    4.5596    0.0000 H       1  UNL1        0.0689
     40 H           4.5981    2.0604    0.0000 H       1  UNL1        0.2922
     41 H           9.8270    3.3774    0.0000 H       1  UNL1        0.0308
     42 H          10.0572    4.2234    0.0000 H       1  UNL1        0.0308
     43 H           9.2111    4.4536    0.0000 H       1  UNL1        0.0308
@<TRIPOS>BOND
     1     1    13    1
     2     1    14    1
     3    14     2    1
     4     2    16    1
     5    10     3    1
     6     3    33    1
     7    11     4    1
     8     4    34    1
     9    12     5    1
    10     5    35    1
    11     6    15    1
    12     6    36    1
    13     7    19   ar
    14     7    23   ar
    15     8    21    1
    16     8    40    1
    17     9    22    2
    18    10    11    1
    19    10    12    1
    20    10    26    1
    21    11    13    1
    22    11    27    1
    23    12    14    1
    24    12    28    1
    25    13    15    1
    26    13    29    1
    27    14    30    1
    28    15    31    1
    29    15    32    1
    30    16    17   ar
    31    16    18   ar
    32    17    19   ar
    33    17    37    1
    34    18    21   ar
    35    18    38    1
    36    19    20   ar
    37    20    21   ar
    38    20    22   ar
    39    22    24   ar
    40    23    24   ar
    41    23    25    1
    42    24    39    1
    43    25    41    1
    44    25    42    1
    45    25    43    1
