@<TRIPOS>MOLECULE
IMPHY015273
 18 18 0 0 0
SMALL
GASTEIGER

@<TRIPOS>ATOM
      1 O           2.8090    0.2239    0.0000 O.2     1  UNL1       -0.4635
      2 O           5.9360   -1.7627    0.0000 O.2     1  UNL1       -0.2960
      3 C           3.6180    0.8116    0.0000 C.ar    1  UNL1        0.1280
      4 C           4.5691    0.5026    0.0000 C.2     1  UNL1       -0.0134
      5 C           4.7770   -0.4755    0.0000 C.2     1  UNL1       -0.0078
      6 C           3.3090    1.7627    0.0000 C.ar    1  UNL1       -0.0165
      7 C           4.0339   -1.1447    0.0000 C.3     1  UNL1       -0.0366
      8 C           2.3090    1.7627    0.0000 C.ar    1  UNL1       -0.0233
      9 C           2.0000    0.8116    0.0000 C.ar    1  UNL1        0.0925
     10 C           5.7281   -0.7845    0.0000 C.2     1  UNL1        0.1461
     11 H           5.0298    0.9175    0.0000 H       1  UNL1        0.0658
     12 H           3.6734    2.2643    0.0000 H       1  UNL1        0.0655
     13 H           3.6190   -0.6839    0.0000 H       1  UNL1        0.0279
     14 H           3.5731   -1.5595    0.0000 H       1  UNL1        0.0279
     15 H           4.4487   -1.6054    0.0000 H       1  UNL1        0.0279
     16 H           1.9446    2.2643    0.0000 H       1  UNL1        0.0649
     17 H           1.4103    0.6200    0.0000 H       1  UNL1        0.1029
     18 H           6.1888   -0.3697    0.0000 H       1  UNL1        0.1078
@<TRIPOS>BOND
     1     1     3   ar
     2     1     9   ar
     3     2    10    2
     4     3     4    1
     5     3     6   ar
     6     4     5    2
     7     4    11    1
     8     5     7    1
     9     5    10    1
    10     6     8   ar
    11     6    12    1
    12     7    13    1
    13     7    14    1
    14     7    15    1
    15     8     9   ar
    16     8    16    1
    17     9    17    1
    18    10    18    1
