@<TRIPOS>MOLECULE
IMPHY010191
 44 48 0 0 0
SMALL
GASTEIGER

@<TRIPOS>ATOM
      1 O           5.7497    3.0374    0.0000 O.3     1  UNL1       -0.4562
      2 O           3.4519   -2.6190    0.0000 O.3     1  UNL1       -0.4526
      3 O           2.0000   -1.7807    0.0000 O.3     1  UNL1       -0.4526
      4 O           2.8197    1.9626    0.0000 O.3     1  UNL1       -0.5057
      5 O           7.1333    1.9234    0.0000 O.2     1  UNL1       -0.2449
      6 O           7.1498   -2.5374    0.0000 O.3     1  UNL1       -0.4914
      7 O           8.8819   -1.5374    0.0000 O.3     1  UNL1       -0.4915
      8 C           5.4178    0.4626    0.0000 C.ar    1  UNL1        0.0046
      9 C           4.5518   -0.0374    0.0000 C.ar    1  UNL1       -0.0022
     10 C           5.4178    1.4626    0.0000 C.ar    1  UNL1        0.0771
     11 C           4.5518    1.9626    0.0000 C.ar    1  UNL1        0.0463
     12 C           3.6857    0.4626    0.0000 C.ar    1  UNL1        0.0283
     13 C           3.6857    1.4626    0.0000 C.ar    1  UNL1        0.1319
     14 C           4.7610    2.9344    0.0000 C.3     1  UNL1        0.1220
     15 C           6.2838   -0.0374    0.0000 C.ar    1  UNL1       -0.0128
     16 C           4.5678   -1.0789    0.0000 C.ar    1  UNL1       -0.0077
     17 C           2.7757   -0.0443    0.0000 C.ar    1  UNL1       -0.0049
     18 C           3.6698   -1.6067    0.0000 C.ar    1  UNL1        0.1668
     19 C           6.1548    2.1296    0.0000 C.2     1  UNL1        0.3406
     20 C           2.7677   -1.0859    0.0000 C.ar    1  UNL1        0.1669
     21 C           6.2838   -1.0374    0.0000 C.ar    1  UNL1       -0.0086
     22 C           7.1498    0.4626    0.0000 C.ar    1  UNL1       -0.0503
     23 C           2.4220   -2.7263    0.0000 C.3     1  UNL1        0.2332
     24 C           7.1498   -1.5374    0.0000 C.ar    1  UNL1        0.1621
     25 C           8.0159   -0.0374    0.0000 C.ar    1  UNL1       -0.0157
     26 C           8.0159   -1.0374    0.0000 C.ar    1  UNL1        0.1615
     27 C           8.0159   -3.0374    0.0000 C.3     1  UNL1        0.0790
     28 C           9.7479   -1.0374    0.0000 C.3     1  UNL1        0.0790
     29 H           4.7618    3.5544    0.0000 H       1  UNL1        0.0750
     30 H           4.1445    3.0004    0.0000 H       1  UNL1        0.0750
     31 H           5.1083   -1.3827    0.0000 H       1  UNL1        0.0662
     32 H           2.2424    0.2719    0.0000 H       1  UNL1        0.0663
     33 H           5.7469   -1.3474    0.0000 H       1  UNL1        0.0661
     34 H           7.1498    1.0826    0.0000 H       1  UNL1        0.0625
     35 H           1.8324   -2.9181    0.0000 H       1  UNL1        0.1166
     36 H           2.5507   -3.3328    0.0000 H       1  UNL1        0.1166
     37 H           2.8197    2.5826    0.0000 H       1  UNL1        0.2922
     38 H           8.5528    0.2726    0.0000 H       1  UNL1        0.0655
     39 H           7.7059   -3.5744    0.0000 H       1  UNL1        0.0660
     40 H           8.5528   -3.3474    0.0000 H       1  UNL1        0.0660
     41 H           8.3259   -2.5005    0.0000 H       1  UNL1        0.0660
     42 H          10.0579   -1.5744    0.0000 H       1  UNL1        0.0660
     43 H          10.2848   -0.7274    0.0000 H       1  UNL1        0.0660
     44 H           9.4379   -0.5005    0.0000 H       1  UNL1        0.0660
@<TRIPOS>BOND
     1     1    14    1
     2     1    19    1
     3     2    18    1
     4     2    23    1
     5     3    20    1
     6     3    23    1
     7     4    13    1
     8     4    37    1
     9     5    19    2
    10     6    24    1
    11     6    27    1
    12     7    26    1
    13     7    28    1
    14     8     9   ar
    15     8    10   ar
    16     8    15    1
    17     9    12   ar
    18     9    16   ar
    19    10    11   ar
    20    10    19    1
    21    11    13   ar
    22    11    14    1
    23    12    13   ar
    24    12    17   ar
    25    14    29    1
    26    14    30    1
    27    15    21   ar
    28    15    22   ar
    29    16    18   ar
    30    16    31    1
    31    17    20   ar
    32    17    32    1
    33    18    20   ar
    34    21    24   ar
    35    21    33    1
    36    22    25   ar
    37    22    34    1
    38    23    35    1
    39    23    36    1
    40    24    26   ar
    41    25    26   ar
    42    25    38    1
    43    27    39    1
    44    27    40    1
    45    27    41    1
    46    28    42    1
    47    28    43    1
    48    28    44    1
