@<TRIPOS>MOLECULE
IMPHY003108
 36 38 0 0 0
SMALL
GASTEIGER

@<TRIPOS>ATOM
      1 O           9.0641    0.3521    0.0000 O.3     1  UNL1       -0.3752
      2 O           6.4144    1.8592    0.0000 O.3     1  UNL1       -0.5056
      3 O           8.1962   -1.1995    0.0000 O.3     1  UNL1       -0.5063
      4 O           4.6660    1.8246    0.0000 O.2     1  UNL1       -0.2865
      5 O           4.6660   -2.1754    0.0000 O.2     1  UNL1       -0.2866
      6 C           5.5321    0.3246    0.0000 C.ar    1  UNL1        0.0750
      7 C           5.5321   -0.6754    0.0000 C.ar    1  UNL1        0.0401
      8 C           7.3321    0.3454    0.0000 C.ar    1  UNL1        0.0615
      9 C           6.4260    0.8593    0.0000 C.ar    1  UNL1        0.1372
     10 C           3.8000    0.3246    0.0000 C.ar    1  UNL1        0.0332
     11 C           3.8000   -0.6754    0.0000 C.ar    1  UNL1        0.0331
     12 C           4.6660    0.8246    0.0000 C.2     1  UNL1        0.1980
     13 C           4.6660   -1.1754    0.0000 C.2     1  UNL1        0.1947
     14 C           6.4260   -1.2100    0.0000 C.ar    1  UNL1       -0.0081
     15 C           7.3321   -0.6962    0.0000 C.ar    1  UNL1        0.1264
     16 C           8.1962    0.8488    0.0000 C.3     1  UNL1        0.0796
     17 C           2.9061    0.8593    0.0000 C.ar    1  UNL1       -0.0502
     18 C           2.9061   -1.2100    0.0000 C.ar    1  UNL1       -0.0502
     19 C           2.0000    0.3454    0.0000 C.ar    1  UNL1       -0.0610
     20 C           2.0000   -0.6962    0.0000 C.ar    1  UNL1       -0.0610
     21 C           9.9282    0.8554    0.0000 C.3     1  UNL1        0.0453
     22 C          10.7961    0.3588    0.0000 C.3     1  UNL1       -0.0416
     23 H           6.4188   -1.8300    0.0000 H       1  UNL1        0.0661
     24 H           8.5929    1.3252    0.0000 H       1  UNL1        0.0612
     25 H           7.7958    1.3222    0.0000 H       1  UNL1        0.0612
     26 H           2.9132    1.4792    0.0000 H       1  UNL1        0.0625
     27 H           2.9132   -1.8300    0.0000 H       1  UNL1        0.0625
     28 H           1.4643    0.6575    0.0000 H       1  UNL1        0.0618
     29 H           1.4643   -1.0083    0.0000 H       1  UNL1        0.0618
     30 H           6.9478    2.1754    0.0000 H       1  UNL1        0.2922
     31 H          10.3249    1.3319    0.0000 H       1  UNL1        0.0557
     32 H           9.5278    1.3288    0.0000 H       1  UNL1        0.0557
     33 H           8.1938   -1.8195    0.0000 H       1  UNL1        0.2921
     34 H          10.4882   -0.1794    0.0000 H       1  UNL1        0.0252
     35 H          11.3343    0.0508    0.0000 H       1  UNL1        0.0252
     36 H          11.1041    0.8969    0.0000 H       1  UNL1        0.0252
@<TRIPOS>BOND
     1     1    16    1
     2     1    21    1
     3     2     9    1
     4     2    30    1
     5     3    15    1
     6     3    33    1
     7     4    12    2
     8     5    13    2
     9     6     7   ar
    10     6     9   ar
    11     6    12    1
    12     7    13    1
    13     7    14   ar
    14     8     9   ar
    15     8    15   ar
    16     8    16    1
    17    10    11   ar
    18    10    12    1
    19    10    17   ar
    20    11    13    1
    21    11    18   ar
    22    14    15   ar
    23    14    23    1
    24    16    24    1
    25    16    25    1
    26    17    19   ar
    27    17    26    1
    28    18    20   ar
    29    18    27    1
    30    19    20   ar
    31    19    28    1
    32    20    29    1
    33    21    22    1
    34    21    31    1
    35    21    32    1
    36    22    34    1
    37    22    35    1
    38    22    36    1
