@<TRIPOS>MOLECULE
IMPHY016690
 19 20 0 0 0
SMALL
GASTEIGER

@<TRIPOS>ATOM
      1 C           5.2619   -0.0000    0.0000 C.3     1  UNL1       -0.0451
      2 C           4.6783   -0.8047    0.0000 C.3     1  UNL1       -0.0271
      3 C           4.6783    0.8047    0.0000 C.3     1  UNL1       -0.0271
      4 C           3.7320   -0.5000    0.0000 C.ar    1  UNL1       -0.0442
      5 C           3.7320    0.5000    0.0000 C.ar    1  UNL1       -0.0442
      6 C           2.8660   -1.0000    0.0000 C.ar    1  UNL1       -0.0583
      7 C           2.8660    1.0000    0.0000 C.ar    1  UNL1       -0.0583
      8 C           2.0000   -0.5000    0.0000 C.ar    1  UNL1       -0.0615
      9 C           2.0000    0.5000    0.0000 C.ar    1  UNL1       -0.0615
     10 H           5.7227   -0.4147    0.0000 H       1  UNL1        0.0272
     11 H           5.7227    0.4147    0.0000 H       1  UNL1        0.0272
     12 H           4.4272   -1.3716    0.0000 H       1  UNL1        0.0313
     13 H           5.2156   -1.1140    0.0000 H       1  UNL1        0.0313
     14 H           5.2156    1.1140    0.0000 H       1  UNL1        0.0313
     15 H           4.4272    1.3716    0.0000 H       1  UNL1        0.0313
     16 H           2.8660   -1.6200    0.0000 H       1  UNL1        0.0620
     17 H           2.8660    1.6200    0.0000 H       1  UNL1        0.0620
     18 H           1.4631   -0.8100    0.0000 H       1  UNL1        0.0618
     19 H           1.4631    0.8100    0.0000 H       1  UNL1        0.0618
@<TRIPOS>BOND
     1     1     2    1
     2     1     3    1
     3     1    10    1
     4     1    11    1
     5     2     4    1
     6     2    12    1
     7     2    13    1
     8     3     5    1
     9     3    14    1
    10     3    15    1
    11     4     5   ar
    12     4     6   ar
    13     5     7   ar
    14     6     8   ar
    15     6    16    1
    16     7     9   ar
    17     7    17    1
    18     8     9   ar
    19     8    18    1
    20     9    19    1
