@<TRIPOS>MOLECULE
IMPHY000121
 58 57 0 0 0
SMALL
GASTEIGER

@<TRIPOS>ATOM
      1 C          10.6603    0.2500    0.0000 C.3     1  UNL1       -0.0439
      2 C           9.7942    0.7500    0.0000 C.3     1  UNL1       -0.0505
      3 C           8.9282    0.2500    0.0000 C.3     1  UNL1       -0.0526
      4 C           7.1962    0.2500    0.0000 C.3     1  UNL1       -0.0439
      5 C           8.0622    0.7500    0.0000 C.3     1  UNL1       -0.0505
      6 C          11.5263    0.7500    0.0000 C.3     1  UNL1       -0.0505
      7 C          12.3923    0.2500    0.0000 C.3     1  UNL1       -0.0526
      8 C           6.3301    0.7500    0.0000 C.3     1  UNL1       -0.0502
      9 C          13.2583    0.7500    0.0000 C.3     1  UNL1       -0.0507
     10 C          10.6603   -0.7500    0.0000 C.3     1  UNL1       -0.0624
     11 C          14.1244    0.2500    0.0000 C.3     1  UNL1       -0.0467
     12 C           7.1962   -0.7500    0.0000 C.3     1  UNL1       -0.0624
     13 C           5.4641    0.2500    0.0000 C.3     1  UNL1       -0.0488
     14 C           4.5981    0.7500    0.0000 C.3     1  UNL1       -0.0282
     15 C          14.9904    0.7500    0.0000 C.3     1  UNL1       -0.0627
     16 C          14.1244   -0.7500    0.0000 C.3     1  UNL1       -0.0627
     17 C           3.7320    0.2500    0.0000 C.2     1  UNL1       -0.0550
     18 C           2.8660    0.7500    0.0000 C.2     1  UNL1       -0.0662
     19 C           3.7320   -0.7500    0.0000 C.2     1  UNL1       -0.0955
     20 C           2.0000    0.2500    0.0000 C.2     1  UNL1       -0.0985
     21 H          11.3964   -0.1750    0.0000 H       1  UNL1        0.0298
     22 H          10.1928    1.2250    0.0000 H       1  UNL1        0.0268
     23 H           9.3957    1.2250    0.0000 H       1  UNL1        0.0268
     24 H           8.5297   -0.2249    0.0000 H       1  UNL1        0.0265
     25 H           9.3267   -0.2249    0.0000 H       1  UNL1        0.0265
     26 H           6.4600   -0.1750    0.0000 H       1  UNL1        0.0298
     27 H           8.4607    1.2250    0.0000 H       1  UNL1        0.0268
     28 H           7.6636    1.2250    0.0000 H       1  UNL1        0.0268
     29 H          11.9248    1.2250    0.0000 H       1  UNL1        0.0268
     30 H          11.1278    1.2250    0.0000 H       1  UNL1        0.0268
     31 H          11.9938   -0.2249    0.0000 H       1  UNL1        0.0265
     32 H          12.7908   -0.2249    0.0000 H       1  UNL1        0.0265
     33 H           6.7287    1.2250    0.0000 H       1  UNL1        0.0268
     34 H           5.9316    1.2250    0.0000 H       1  UNL1        0.0268
     35 H          13.6569    1.2250    0.0000 H       1  UNL1        0.0268
     36 H          12.8598    1.2250    0.0000 H       1  UNL1        0.0268
     37 H          10.0403   -0.7500    0.0000 H       1  UNL1        0.0232
     38 H          10.6603   -1.3700    0.0000 H       1  UNL1        0.0232
     39 H          11.2803   -0.7500    0.0000 H       1  UNL1        0.0232
     40 H          13.5874   -0.0600    0.0000 H       1  UNL1        0.0295
     41 H           6.5762   -0.7500    0.0000 H       1  UNL1        0.0232
     42 H           7.1962   -1.3700    0.0000 H       1  UNL1        0.0232
     43 H           7.8162   -0.7500    0.0000 H       1  UNL1        0.0232
     44 H           5.0656   -0.2249    0.0000 H       1  UNL1        0.0268
     45 H           5.8626   -0.2249    0.0000 H       1  UNL1        0.0268
     46 H           4.9966    1.2250    0.0000 H       1  UNL1        0.0313
     47 H           4.1996    1.2250    0.0000 H       1  UNL1        0.0313
     48 H          15.3004    0.2131    0.0000 H       1  UNL1        0.0232
     49 H          15.5273    1.0600    0.0000 H       1  UNL1        0.0232
     50 H          14.6804    1.2869    0.0000 H       1  UNL1        0.0232
     51 H          13.5044   -0.7500    0.0000 H       1  UNL1        0.0232
     52 H          14.1244   -1.3700    0.0000 H       1  UNL1        0.0232
     53 H          14.7444   -0.7500    0.0000 H       1  UNL1        0.0232
     54 H           2.8660    1.3700    0.0000 H       1  UNL1        0.0614
     55 H           3.1951   -1.0600    0.0000 H       1  UNL1        0.0537
     56 H           4.2690   -1.0600    0.0000 H       1  UNL1        0.0537
     57 H           1.4631    0.5600    0.0000 H       1  UNL1        0.0535
     58 H           2.0000   -0.3700    0.0000 H       1  UNL1        0.0535
@<TRIPOS>BOND
     1     1     2    1
     2     1     6    1
     3     1    10    1
     4     1    21    1
     5     2     3    1
     6     2    22    1
     7     2    23    1
     8     3     5    1
     9     3    24    1
    10     3    25    1
    11     4     5    1
    12     4     8    1
    13     4    12    1
    14     4    26    1
    15     5    27    1
    16     5    28    1
    17     6     7    1
    18     6    29    1
    19     6    30    1
    20     7     9    1
    21     7    31    1
    22     7    32    1
    23     8    13    1
    24     8    33    1
    25     8    34    1
    26     9    11    1
    27     9    35    1
    28     9    36    1
    29    10    37    1
    30    10    38    1
    31    10    39    1
    32    11    15    1
    33    11    16    1
    34    11    40    1
    35    12    41    1
    36    12    42    1
    37    12    43    1
    38    13    14    1
    39    13    44    1
    40    13    45    1
    41    14    17    1
    42    14    46    1
    43    14    47    1
    44    15    48    1
    45    15    49    1
    46    15    50    1
    47    16    51    1
    48    16    52    1
    49    16    53    1
    50    17    18    1
    51    17    19    2
    52    18    20    2
    53    18    54    1
    54    19    55    1
    55    19    56    1
    56    20    57    1
    57    20    58    1
