@<TRIPOS>MOLECULE
IMPHY012353
 31 34 0 0 0
SMALL
GASTEIGER

@<TRIPOS>ATOM
      1 O           2.8718   -0.1989    0.0000 O.3     1  UNL1       -0.4908
      2 O           2.8560   -2.2472    0.0000 O.3     1  UNL1       -0.5033
      3 O           6.9733   -2.7380    0.0000 O.2     1  UNL1       -0.2698
      4 N           6.9919   -0.9804    0.0000 N.am    1  UNL1       -0.2809
      5 C           5.5080   -0.7021    0.0000 C.ar    1  UNL1        0.0198
      6 C           4.6419   -0.2021    0.0000 C.ar    1  UNL1        0.0376
      7 C           6.3740   -0.2021    0.0000 C.ar    1  UNL1        0.0429
      8 C           5.5240   -1.7436    0.0000 C.ar    1  UNL1        0.0502
      9 C           4.6419    0.7979    0.0000 C.ar    1  UNL1       -0.0064
     10 C           5.5080    1.2979    0.0000 C.ar    1  UNL1       -0.0154
     11 C           6.3740    0.7979    0.0000 C.ar    1  UNL1       -0.0321
     12 C           3.7319   -0.7089    0.0000 C.ar    1  UNL1        0.1696
     13 C           6.5120   -1.8507    0.0000 C.2     1  UNL1        0.2490
     14 C           4.6260   -2.2713    0.0000 C.ar    1  UNL1       -0.0037
     15 C           3.7239   -1.7505    0.0000 C.ar    1  UNL1        0.1598
     16 C           3.7319    1.3048    0.0000 C.ar    1  UNL1       -0.0533
     17 C           5.5240    2.3394    0.0000 C.ar    1  UNL1       -0.0540
     18 C           3.7239    2.3464    0.0000 C.ar    1  UNL1       -0.0611
     19 C           4.6260    2.8672    0.0000 C.ar    1  UNL1       -0.0612
     20 C           2.0000   -0.6889    0.0000 C.3     1  UNL1        0.0790
     21 H           6.9109    1.1079    0.0000 H       1  UNL1        0.0642
     22 H           7.6098   -0.9287    0.0000 H       1  UNL1        0.1552
     23 H           4.6284   -2.8913    0.0000 H       1  UNL1        0.0663
     24 H           3.1986    0.9886    0.0000 H       1  UNL1        0.0624
     25 H           6.0645    2.6432    0.0000 H       1  UNL1        0.0624
     26 H           3.1858    2.6543    0.0000 H       1  UNL1        0.0618
     27 H           4.6284    3.4872    0.0000 H       1  UNL1        0.0618
     28 H           2.8536   -2.8672    0.0000 H       1  UNL1        0.2923
     29 H           1.6962   -0.1484    0.0000 H       1  UNL1        0.0660
     30 H           1.4595   -0.9927    0.0000 H       1  UNL1        0.0660
     31 H           2.3038   -1.2294    0.0000 H       1  UNL1        0.0660
@<TRIPOS>BOND
     1     1    12    1
     2     1    20    1
     3     2    15    1
     4     2    28    1
     5     3    13    2
     6     4     7    1
     7     4    13   am
     8     4    22    1
     9     5     6   ar
    10     5     7   ar
    11     5     8   ar
    12     6     9   ar
    13     6    12   ar
    14     7    11   ar
    15     8    13    1
    16     8    14   ar
    17     9    10   ar
    18     9    16   ar
    19    10    11   ar
    20    10    17   ar
    21    11    21    1
    22    12    15   ar
    23    14    15   ar
    24    14    23    1
    25    16    18   ar
    26    16    24    1
    27    17    19   ar
    28    17    25    1
    29    18    19   ar
    30    18    26    1
    31    19    27    1
    32    20    29    1
    33    20    30    1
    34    20    31    1
