@<TRIPOS>MOLECULE
IMPHY005678
 157 166 0 0 0
SMALL
GASTEIGER

@<TRIPOS>ATOM
      1 O          11.7543    5.5403    0.0000 O.3     1  UNL1       -0.3448
      2 O           9.9818    6.4351    0.0000 O.3     1  UNL1       -0.3480
      3 O          10.3312   -2.7038    0.0000 O.3     1  UNL1       -0.3454
      4 O           8.5991   -2.7038    0.0000 O.3     1  UNL1       -0.3405
      5 O          10.3312   -4.7038    0.0000 O.3     1  UNL1       -0.3378
      6 O           8.5991   -5.7038    0.0000 O.3     1  UNL1       -0.3864
      7 O           6.8671   -4.7038    0.0000 O.3     1  UNL1       -0.3401
      8 O           6.8671   -1.7038    0.0000 O.3     1  UNL1       -0.3460
      9 O          11.1972   -3.2038    0.0000 O.3     1  UNL1       -0.3405
     10 O           7.7331   -6.2038    0.0000 O.3     1  UNL1       -0.3431
     11 O          12.0632   -5.7038    0.0000 O.3     1  UNL1       -0.3841
     12 O          13.7953   -4.7038    0.0000 O.3     1  UNL1       -0.3864
     13 O           5.1350   -1.7038    0.0000 O.3     1  UNL1       -0.3405
     14 O           5.1350   -5.7038    0.0000 O.3     1  UNL1       -0.3841
     15 O          13.7953   -2.7038    0.0000 O.3     1  UNL1       -0.3865
     16 O           5.1350   -7.7038    0.0000 O.3     1  UNL1       -0.3864
     17 O           6.8671    0.2963    0.0000 O.3     1  UNL1       -0.3841
     18 O           6.8671   -8.7038    0.0000 O.3     1  UNL1       -0.3866
     19 O          12.9292   -1.2038    0.0000 O.3     1  UNL1       -0.3924
     20 O           5.1350    1.2962    0.0000 O.3     1  UNL1       -0.3864
     21 O           3.4030    0.2963    0.0000 O.3     1  UNL1       -0.3865
     22 O           2.5369   -1.2038    0.0000 O.3     1  UNL1       -0.3924
     23 C          10.3604    3.4931    0.0000 C.3     1  UNL1       -0.0233
     24 C          11.2284    2.9965    0.0000 C.3     1  UNL1       -0.0298
     25 C          11.2322    1.9965    0.0000 C.3     1  UNL1       -0.0343
     26 C          10.5659    4.4657    0.0000 C.3     1  UNL1       -0.0015
     27 C          10.3681    1.4931    0.0000 C.3     1  UNL1       -0.0323
     28 C          11.5542    4.5726    0.0000 C.3     1  UNL1        0.0660
     29 C          10.3561    0.4516    0.0000 C.3     1  UNL1       -0.0260
     30 C          11.9628    3.6664    0.0000 C.3     1  UNL1       -0.0226
     31 C           9.4963    2.9898    0.0000 C.3     1  UNL1       -0.0467
     32 C           9.5002    1.9898    0.0000 C.3     1  UNL1       -0.0489
     33 C          10.1636    5.3683    0.0000 C.3     1  UNL1        0.0160
     34 C          11.2562   -0.0727    0.0000 C.3     1  UNL1       -0.0330
     35 C          12.1442    1.4931    0.0000 C.3     1  UNL1       -0.0494
     36 C          10.8966    6.0311    0.0000 C.3     1  UNL1        0.1732
     37 C          12.1562    0.4516    0.0000 C.3     1  UNL1       -0.0494
     38 C           9.4925    3.9898    0.0000 C.3     1  UNL1       -0.0590
     39 C           9.4062   -0.0727    0.0000 C.3     1  UNL1       -0.0448
     40 C          11.2687   -1.1576    0.0000 C.3     1  UNL1       -0.0232
     41 C           9.4920    0.9549    0.0000 C.3     1  UNL1       -0.0590
     42 C           9.3936   -1.1576    0.0000 C.3     1  UNL1       -0.0260
     43 C           9.1852    5.5750    0.0000 C.3     1  UNL1       -0.0572
     44 C          10.3312   -1.7038    0.0000 C.3     1  UNL1        0.0621
     45 C          11.7038    6.6213    0.0000 C.3     1  UNL1        0.0020
     46 C          11.5963    7.6155    0.0000 C.3     1  UNL1       -0.0435
     47 C           9.8743    7.4293    0.0000 C.3     1  UNL1        0.0535
     48 C          10.6816    8.0195    0.0000 C.3     1  UNL1       -0.0201
     49 C          10.5741    9.0138    0.0000 C.3     1  UNL1       -0.0603
     50 C           9.4651   -3.2038    0.0000 C.3     1  UNL1        0.1886
     51 C           9.4651   -4.2038    0.0000 C.3     1  UNL1        0.1406
     52 C           8.5991   -4.7038    0.0000 C.3     1  UNL1        0.1148
     53 C           7.7331   -3.2038    0.0000 C.3     1  UNL1        0.1137
     54 C           7.7331   -4.2038    0.0000 C.3     1  UNL1        0.1184
     55 C           6.8671   -2.7038    0.0000 C.3     1  UNL1        0.0796
     56 C          11.1972   -4.2038    0.0000 C.3     1  UNL1        0.1885
     57 C          12.0632   -4.7038    0.0000 C.3     1  UNL1        0.1341
     58 C           6.8671   -5.7038    0.0000 C.3     1  UNL1        0.1883
     59 C          12.9292   -4.2038    0.0000 C.3     1  UNL1        0.1141
     60 C          12.0632   -2.7038    0.0000 C.3     1  UNL1        0.1130
     61 C           6.0010   -6.2038    0.0000 C.3     1  UNL1        0.1341
     62 C          12.9292   -3.2038    0.0000 C.3     1  UNL1        0.1119
     63 C           6.0010   -1.2038    0.0000 C.3     1  UNL1        0.1880
     64 C           6.0010   -7.2038    0.0000 C.3     1  UNL1        0.1140
     65 C           7.7331   -7.2038    0.0000 C.3     1  UNL1        0.0873
     66 C           6.0010   -0.2037    0.0000 C.3     1  UNL1        0.1341
     67 C           6.8671   -7.7038    0.0000 C.3     1  UNL1        0.1095
     68 C          12.0632   -1.7038    0.0000 C.3     1  UNL1        0.0730
     69 C           5.1350    0.2963    0.0000 C.3     1  UNL1        0.1141
     70 C           4.2690   -1.2038    0.0000 C.3     1  UNL1        0.1130
     71 C           4.2690   -0.2037    0.0000 C.3     1  UNL1        0.1119
     72 C           8.5991   -7.7038    0.0000 C.3     1  UNL1       -0.0361
     73 C           3.4030   -1.7038    0.0000 C.3     1  UNL1        0.0730
     74 H          11.9178    2.6882    0.0000 H       1  UNL1        0.0310
     75 H          11.2681    1.2422    0.0000 H       1  UNL1        0.0306
     76 H           9.8157    4.3793    0.0000 H       1  UNL1        0.0335
     77 H          11.0066    1.0899    0.0000 H       1  UNL1        0.0309
     78 H          12.3055    4.6485    0.0000 H       1  UNL1        0.0600
     79 H          12.6797    3.9038    0.0000 H       1  UNL1        0.0293
     80 H          12.5268    3.1642    0.0000 H       1  UNL1        0.0293
     81 H           8.7412    2.9869    0.0000 H       1  UNL1        0.0271
     82 H           9.1162    3.6423    0.0000 H       1  UNL1        0.0271
     83 H           9.1252    1.3344    0.0000 H       1  UNL1        0.0268
     84 H           8.7451    1.9869    0.0000 H       1  UNL1        0.0268
     85 H           9.6821    4.7866    0.0000 H       1  UNL1        0.0354
     86 H          10.6177   -0.4759    0.0000 H       1  UNL1        0.0307
     87 H          12.5117    2.1528    0.0000 H       1  UNL1        0.0268
     88 H          12.8993    1.5046    0.0000 H       1  UNL1        0.0268
     89 H          12.9113    0.4574    0.0000 H       1  UNL1        0.0268
     90 H          12.5388   -0.1994    0.0000 H       1  UNL1        0.0268
     91 H           9.4896    4.7449    0.0000 H       1  UNL1        0.0235
     92 H           8.8371    4.3649    0.0000 H       1  UNL1        0.0235
     93 H           8.8400    3.6097    0.0000 H       1  UNL1        0.0235
     94 H           8.6511   -0.0611    0.0000 H       1  UNL1        0.0271
     95 H           9.0388    0.5870    0.0000 H       1  UNL1        0.0271
     96 H          12.0238   -1.1517    0.0000 H       1  UNL1        0.0293
     97 H          11.6513   -1.8086    0.0000 H       1  UNL1        0.0293
     98 H           9.4949    1.7100    0.0000 H       1  UNL1        0.0235
     99 H           8.8395    1.3350    0.0000 H       1  UNL1        0.0235
    100 H           8.8366    0.5798    0.0000 H       1  UNL1        0.0235
    101 H           9.0109   -1.8086    0.0000 H       1  UNL1        0.0290
    102 H           8.6385   -1.1517    0.0000 H       1  UNL1        0.0290
    103 H           8.9510    6.2929    0.0000 H       1  UNL1        0.0234
    104 H           8.4464    5.7311    0.0000 H       1  UNL1        0.0234
    105 H           8.6806    5.0132    0.0000 H       1  UNL1        0.0234
    106 H          11.0109   -2.0328    0.0000 H       1  UNL1        0.0597
    107 H          12.4546    6.7025    0.0000 H       1  UNL1        0.0317
    108 H          12.1495    6.0117    0.0000 H       1  UNL1        0.0317
    109 H          11.9014    8.3063    0.0000 H       1  UNL1        0.0270
    110 H          12.3471    7.6967    0.0000 H       1  UNL1        0.0270
    111 H           9.1235    7.3481    0.0000 H       1  UNL1        0.0563
    112 H           9.4286    8.0389    0.0000 H       1  UNL1        0.0563
    113 H          11.2911    8.4653    0.0000 H       1  UNL1        0.0320
    114 H          11.1837    9.4595    0.0000 H       1  UNL1        0.0233
    115 H          10.4929    9.7646    0.0000 H       1  UNL1        0.0233
    116 H           9.8833    9.3189    0.0000 H       1  UNL1        0.0233
    117 H           9.4652   -2.4487    0.0000 H       1  UNL1        0.0938
    118 H           9.4652   -4.9589    0.0000 H       1  UNL1        0.0675
    119 H           7.9451   -5.0814    0.0000 H       1  UNL1        0.0648
    120 H           8.3871   -3.5814    0.0000 H       1  UNL1        0.0647
    121 H           7.0791   -3.8262    0.0000 H       1  UNL1        0.0651
    122 H           6.4895   -3.3578    0.0000 H       1  UNL1        0.0587
    123 H           6.1120   -2.7038    0.0000 H       1  UNL1        0.0587
    124 H          10.5432   -3.8262    0.0000 H       1  UNL1        0.0938
    125 H           8.5991   -6.4589    0.0000 H       1  UNL1        0.2100
    126 H          12.7172   -5.0814    0.0000 H       1  UNL1        0.0671
    127 H           6.8670   -6.4589    0.0000 H       1  UNL1        0.0938
    128 H          12.9293   -4.9589    0.0000 H       1  UNL1        0.0648
    129 H          11.4092   -2.3262    0.0000 H       1  UNL1        0.0647
    130 H           6.0011   -5.4487    0.0000 H       1  UNL1        0.0671
    131 H          12.9293   -2.4487    0.0000 H       1  UNL1        0.0647
    132 H           6.0011   -1.9589    0.0000 H       1  UNL1        0.0937
    133 H          12.0632   -6.4589    0.0000 H       1  UNL1        0.2101
    134 H           6.0011   -7.9589    0.0000 H       1  UNL1        0.0648
    135 H           8.3871   -6.8262    0.0000 H       1  UNL1        0.0621
    136 H           6.0011    0.5514    0.0000 H       1  UNL1        0.0671
    137 H           6.8670   -6.9487    0.0000 H       1  UNL1        0.0646
    138 H          11.3081   -1.7038    0.0000 H       1  UNL1        0.0584
    139 H          11.6856   -1.0498    0.0000 H       1  UNL1        0.0584
    140 H          14.4493   -5.0813    0.0000 H       1  UNL1        0.2100
    141 H           4.4810   -5.3262    0.0000 H       1  UNL1        0.2101
    142 H           5.7890    0.6738    0.0000 H       1  UNL1        0.0648
    143 H          14.4493   -2.3263    0.0000 H       1  UNL1        0.2100
    144 H           3.6151   -0.8262    0.0000 H       1  UNL1        0.0647
    145 H           3.6151   -0.5813    0.0000 H       1  UNL1        0.0647
    146 H           8.5991   -8.4589    0.0000 H       1  UNL1        0.0255
    147 H           9.2531   -8.0814    0.0000 H       1  UNL1        0.0255
    148 H           9.2531   -7.3262    0.0000 H       1  UNL1        0.0255
    149 H           4.4810   -8.0814    0.0000 H       1  UNL1        0.2100
    150 H           7.5211    0.6738    0.0000 H       1  UNL1        0.2101
    151 H           6.8671   -9.4589    0.0000 H       1  UNL1        0.2100
    152 H          13.5832   -0.8262    0.0000 H       1  UNL1        0.2095
    153 H           3.7806   -2.3577    0.0000 H       1  UNL1        0.0584
    154 H           3.0255   -2.3578    0.0000 H       1  UNL1        0.0584
    155 H           5.1350    2.0513    0.0000 H       1  UNL1        0.2100
    156 H           2.7490    0.6739    0.0000 H       1  UNL1        0.2100
    157 H           1.8829   -0.8263    0.0000 H       1  UNL1        0.2095
@<TRIPOS>BOND
     1     1    28    1
     2    36     1    1
     3    36     2    1
     4     2    47    1
     5     3    44    1
     6     3    50    1
     7     4    50    1
     8     4    53    1
     9     5    51    1
    10     5    56    1
    11     6    52    1
    12     6   125    1
    13     7    54    1
    14     7    58    1
    15     8    55    1
    16     8    63    1
    17     9    56    1
    18     9    60    1
    19    10    58    1
    20    10    65    1
    21    11    57    1
    22    11   133    1
    23    12    59    1
    24    12   140    1
    25    13    63    1
    26    13    70    1
    27    14    61    1
    28    14   141    1
    29    15    62    1
    30    15   143    1
    31    16    64    1
    32    16   149    1
    33    17    66    1
    34    17   150    1
    35    18    67    1
    36    18   151    1
    37    19    68    1
    38    19   152    1
    39    20    69    1
    40    20   155    1
    41    21    71    1
    42    21   156    1
    43    22    73    1
    44    22   157    1
    45    23    24    1
    46    23    26    1
    47    23    31    1
    48    23    38    1
    49    24    25    1
    50    24    30    1
    51    24    74    1
    52    25    27    1
    53    25    35    1
    54    25    75    1
    55    26    28    1
    56    26    33    1
    57    26    76    1
    58    27    29    1
    59    27    32    1
    60    27    77    1
    61    28    30    1
    62    28    78    1
    63    29    34    1
    64    29    39    1
    65    29    41    1
    66    30    79    1
    67    30    80    1
    68    31    32    1
    69    31    81    1
    70    31    82    1
    71    32    83    1
    72    32    84    1
    73    36    33    1
    74    33    43    1
    75    33    85    1
    76    34    37    1
    77    34    40    1
    78    34    86    1
    79    35    37    1
    80    35    87    1
    81    35    88    1
    82    36    45    1
    83    37    89    1
    84    37    90    1
    85    38    91    1
    86    38    92    1
    87    38    93    1
    88    39    42    1
    89    39    94    1
    90    39    95    1
    91    40    44    1
    92    40    96    1
    93    40    97    1
    94    41    98    1
    95    41    99    1
    96    41   100    1
    97    42    44    1
    98    42   101    1
    99    42   102    1
   100    43   103    1
   101    43   104    1
   102    43   105    1
   103    44   106    1
   104    45    46    1
   105    45   107    1
   106    45   108    1
   107    46    48    1
   108    46   109    1
   109    46   110    1
   110    47    48    1
   111    47   111    1
   112    47   112    1
   113    48    49    1
   114    48   113    1
   115    49   114    1
   116    49   115    1
   117    49   116    1
   118    50    51    1
   119    50   117    1
   120    51    52    1
   121    51   118    1
   122    52    54    1
   123    52   119    1
   124    53    54    1
   125    53    55    1
   126    53   120    1
   127    54   121    1
   128    55   122    1
   129    55   123    1
   130    56    57    1
   131    56   124    1
   132    57    59    1
   133    57   126    1
   134    58    61    1
   135    58   127    1
   136    59    62    1
   137    59   128    1
   138    60    62    1
   139    60    68    1
   140    60   129    1
   141    61    64    1
   142    61   130    1
   143    62   131    1
   144    63    66    1
   145    63   132    1
   146    64    67    1
   147    64   134    1
   148    65    67    1
   149    65    72    1
   150    65   135    1
   151    66    69    1
   152    66   136    1
   153    67   137    1
   154    68   138    1
   155    68   139    1
   156    69    71    1
   157    69   142    1
   158    70    71    1
   159    70    73    1
   160    70   144    1
   161    71   145    1
   162    72   146    1
   163    72   147    1
   164    72   148    1
   165    73   153    1
   166    73   154    1
