@<TRIPOS>MOLECULE
IMPHY003704
 43 44 0 0 0
SMALL
GASTEIGER

@<TRIPOS>ATOM
      1 O           3.9860   -1.1830    0.0000 O.3     1  UNL1       -0.3876
      2 O           2.6200    2.1830    0.0000 O.3     1  UNL1       -0.3885
      3 C           3.9860   -0.1830    0.0000 C.3     1  UNL1        0.0782
      4 C           3.9860    0.8170    0.0000 C.3     1  UNL1        0.0173
      5 C           3.1200   -0.6830    0.0000 C.3     1  UNL1       -0.0091
      6 C           3.1200    1.3170    0.0000 C.3     1  UNL1        0.0688
      7 C           2.2540   -0.1830    0.0000 C.3     1  UNL1       -0.0448
      8 C           2.2540    0.8170    0.0000 C.3     1  UNL1       -0.0236
      9 C           4.8800    1.3516    0.0000 C.3     1  UNL1       -0.0413
     10 C           4.8800   -0.7177    0.0000 C.3     1  UNL1       -0.0024
     11 C           3.1200   -1.6830    0.0000 C.3     1  UNL1       -0.0413
     12 C           5.7860    0.8378    0.0000 C.3     1  UNL1       -0.0315
     13 C           5.7860   -0.2038    0.0000 C.2     1  UNL1       -0.0739
     14 C           3.6200    2.1830    0.0000 C.3     1  UNL1       -0.0357
     15 C           2.2540   -2.1830    0.0000 C.3     1  UNL1       -0.0623
     16 C           3.9860   -2.1830    0.0000 C.3     1  UNL1       -0.0623
     17 C           6.6501   -0.7072    0.0000 C.2     1  UNL1       -0.0994
     18 H           3.9795    1.6670    0.0000 H       1  UNL1        0.0357
     19 H           2.5831   -0.9930    0.0000 H       1  UNL1        0.0331
     20 H           1.6434   -0.0754    0.0000 H       1  UNL1        0.0270
     21 H           2.0419   -0.7656    0.0000 H       1  UNL1        0.0270
     22 H           2.0419    1.3996    0.0000 H       1  UNL1        0.0293
     23 H           1.6434    0.7093    0.0000 H       1  UNL1        0.0293
     24 H           5.2736    1.8307    0.0000 H       1  UNL1        0.0273
     25 H           4.4754    1.8214    0.0000 H       1  UNL1        0.0273
     26 H           4.4754   -1.1875    0.0000 H       1  UNL1        0.0338
     27 H           5.2736   -1.1967    0.0000 H       1  UNL1        0.0338
     28 H           3.6569   -1.3730    0.0000 H       1  UNL1        0.0299
     29 H           6.3969    0.7317    0.0000 H       1  UNL1        0.0310
     30 H           5.9951    1.4215    0.0000 H       1  UNL1        0.0310
     31 H           4.1569    1.8730    0.0000 H       1  UNL1        0.0257
     32 H           3.9300    2.7200    0.0000 H       1  UNL1        0.0257
     33 H           3.0831    2.4930    0.0000 H       1  UNL1        0.0257
     34 H           4.5230   -1.4930    0.0000 H       1  UNL1        0.2102
     35 H           2.0000    2.1830    0.0000 H       1  UNL1        0.2102
     36 H           1.9440   -1.6461    0.0000 H       1  UNL1        0.0232
     37 H           1.7170   -2.4930    0.0000 H       1  UNL1        0.0232
     38 H           2.5640   -2.7200    0.0000 H       1  UNL1        0.0232
     39 H           3.6760   -2.7200    0.0000 H       1  UNL1        0.0232
     40 H           4.5230   -2.4930    0.0000 H       1  UNL1        0.0232
     41 H           4.2960   -1.6461    0.0000 H       1  UNL1        0.0232
     42 H           6.6477   -1.3272    0.0000 H       1  UNL1        0.0534
     43 H           7.1882   -0.3992    0.0000 H       1  UNL1        0.0534
@<TRIPOS>BOND
     1     3     1    1
     2     1    34    1
     3     6     2    1
     4     2    35    1
     5     3     4    1
     6     3     5    1
     7     3    10    1
     8     4     6    1
     9     4     9    1
    10     4    18    1
    11     5     7    1
    12     5    11    1
    13     5    19    1
    14     6     8    1
    15     6    14    1
    16     7     8    1
    17     7    20    1
    18     7    21    1
    19     8    22    1
    20     8    23    1
    21     9    12    1
    22     9    24    1
    23     9    25    1
    24    10    13    1
    25    10    26    1
    26    10    27    1
    27    11    15    1
    28    11    16    1
    29    11    28    1
    30    12    13    1
    31    12    29    1
    32    12    30    1
    33    13    17    2
    34    14    31    1
    35    14    32    1
    36    14    33    1
    37    15    36    1
    38    15    37    1
    39    15    38    1
    40    16    39    1
    41    16    40    1
    42    16    41    1
    43    17    42    1
    44    17    43    1
