@<TRIPOS>MOLECULE
IMPHY013318
 47 48 0 0 0
SMALL
GASTEIGER

@<TRIPOS>ATOM
      1 O           8.6793    0.1953    0.0000 O.3     1  UNL1       -0.4876
      2 O          11.7629    1.8660    0.0000 O.3     1  UNL1       -0.3946
      3 O           2.5369    1.5000    0.0000 O.3     1  UNL1       -0.4775
      4 O           3.4030    3.0000    0.0000 O.2     1  UNL1       -0.2458
      5 C           9.2629    1.0000    0.0000 C.3     1  UNL1        0.1089
      6 C          10.2629    1.0000    0.0000 C.3     1  UNL1        0.0167
      7 C           8.6793    1.8047    0.0000 C.3     1  UNL1        0.0133
      8 C           7.7331    1.5000    0.0000 C.ar    1  UNL1       -0.0014
      9 C           7.7331    0.5000    0.0000 C.ar    1  UNL1        0.1277
     10 C          10.7629    1.8660    0.0000 C.3     1  UNL1        0.0501
     11 C           6.8671   -0.0000    0.0000 C.ar    1  UNL1       -0.0011
     12 C          10.7629    0.1340    0.0000 C.3     1  UNL1       -0.0569
     13 C           6.8671    2.0000    0.0000 C.ar    1  UNL1       -0.0478
     14 C           6.0010    1.5000    0.0000 C.ar    1  UNL1       -0.0241
     15 C           6.0010    0.5000    0.0000 C.ar    1  UNL1       -0.0476
     16 C           6.8671   -1.0000    0.0000 C.3     1  UNL1       -0.0058
     17 C           6.0010   -1.5000    0.0000 C.2     1  UNL1       -0.0809
     18 C           5.1350    2.0000    0.0000 C.2     1  UNL1       -0.0478
     19 C           6.0010   -2.5000    0.0000 C.2     1  UNL1       -0.0793
     20 C           4.2690    1.5000    0.0000 C.2     1  UNL1        0.0229
     21 C           5.1350   -3.0000    0.0000 C.3     1  UNL1       -0.0440
     22 C           6.8671   -3.0000    0.0000 C.3     1  UNL1       -0.0440
     23 C           3.4030    2.0000    0.0000 C.2     1  UNL1        0.3296
     24 H           9.5446    0.4477    0.0000 H       1  UNL1        0.0739
     25 H          10.8829    1.0000    0.0000 H       1  UNL1        0.0356
     26 H           9.2167    2.1140    0.0000 H       1  UNL1        0.0350
     27 H           8.4283    2.3716    0.0000 H       1  UNL1        0.0350
     28 H          10.8706    2.4766    0.0000 H       1  UNL1        0.0561
     29 H          10.1803    2.0781    0.0000 H       1  UNL1        0.0561
     30 H          10.2260   -0.1760    0.0000 H       1  UNL1        0.0234
     31 H          11.0729   -0.4030    0.0000 H       1  UNL1        0.0234
     32 H          11.2999    0.4440    0.0000 H       1  UNL1        0.0234
     33 H           6.8671    2.6200    0.0000 H       1  UNL1        0.0627
     34 H           5.4641    0.1900    0.0000 H       1  UNL1        0.0627
     35 H           7.0791   -1.5826    0.0000 H       1  UNL1        0.0357
     36 H           7.4776   -0.8923    0.0000 H       1  UNL1        0.0357
     37 H           5.4641   -1.1900    0.0000 H       1  UNL1        0.0575
     38 H          12.0729    2.4030    0.0000 H       1  UNL1        0.2094
     39 H           5.1350    2.6200    0.0000 H       1  UNL1        0.0626
     40 H           4.2690    0.8800    0.0000 H       1  UNL1        0.0689
     41 H           4.8250   -2.4631    0.0000 H       1  UNL1        0.0274
     42 H           4.5981   -3.3100    0.0000 H       1  UNL1        0.0274
     43 H           5.4450   -3.5369    0.0000 H       1  UNL1        0.0274
     44 H           6.5571   -3.5369    0.0000 H       1  UNL1        0.0274
     45 H           7.4040   -3.3100    0.0000 H       1  UNL1        0.0274
     46 H           7.1771   -2.4631    0.0000 H       1  UNL1        0.0274
     47 H           2.0000    1.8100    0.0000 H       1  UNL1        0.2954
@<TRIPOS>BOND
     1     1     5    1
     2     1     9    1
     3     2    10    1
     4     2    38    1
     5     3    23    1
     6     3    47    1
     7     4    23    2
     8     5     6    1
     9     5     7    1
    10     5    24    1
    11     6    10    1
    12     6    12    1
    13     6    25    1
    14     7     8    1
    15     7    26    1
    16     7    27    1
    17     8     9   ar
    18     8    13   ar
    19     9    11   ar
    20    10    28    1
    21    10    29    1
    22    11    15   ar
    23    11    16    1
    24    12    30    1
    25    12    31    1
    26    12    32    1
    27    13    14   ar
    28    13    33    1
    29    14    15   ar
    30    14    18    1
    31    15    34    1
    32    16    17    1
    33    16    35    1
    34    16    36    1
    35    17    19    2
    36    17    37    1
    37    18    20    2
    38    18    39    1
    39    19    21    1
    40    19    22    1
    41    20    23    1
    42    20    40    1
    43    21    41    1
    44    21    42    1
    45    21    43    1
    46    22    44    1
    47    22    45    1
    48    22    46    1
