@<TRIPOS>MOLECULE
IMPHY006025
 36 35 0 0 0
SMALL
GASTEIGER

@<TRIPOS>ATOM
      1 O          12.9292    0.7500    0.0000 O.3     1  UNL1       -0.3950
      2 O           2.5369    0.7500    0.0000 O.3     1  UNL1       -0.4806
      3 O           3.4030   -0.7500    0.0000 O.2     1  UNL1       -0.2510
      4 C           7.7331    0.7500    0.0000 C.3     1  UNL1       -0.0531
      5 C           8.5991    0.2500    0.0000 C.3     1  UNL1       -0.0531
      6 C           6.8671    0.2500    0.0000 C.3     1  UNL1       -0.0530
      7 C           9.4651    0.7500    0.0000 C.3     1  UNL1       -0.0530
      8 C           6.0010    0.7500    0.0000 C.3     1  UNL1       -0.0526
      9 C          10.3312    0.2500    0.0000 C.3     1  UNL1       -0.0510
     10 C           5.1350    0.2500    0.0000 C.3     1  UNL1       -0.0430
     11 C          11.1972    0.7500    0.0000 C.3     1  UNL1       -0.0297
     12 C           4.2690    0.7500    0.0000 C.3     1  UNL1        0.0448
     13 C          12.0632    0.2500    0.0000 C.3     1  UNL1        0.0442
     14 C           3.4030    0.2500    0.0000 C.2     1  UNL1        0.3047
     15 H           8.1316    1.2250    0.0000 H       1  UNL1        0.0265
     16 H           7.3346    1.2250    0.0000 H       1  UNL1        0.0265
     17 H           8.2006   -0.2249    0.0000 H       1  UNL1        0.0265
     18 H           8.9976   -0.2249    0.0000 H       1  UNL1        0.0265
     19 H           6.4685   -0.2249    0.0000 H       1  UNL1        0.0265
     20 H           7.2656   -0.2249    0.0000 H       1  UNL1        0.0265
     21 H           9.8637    1.2250    0.0000 H       1  UNL1        0.0265
     22 H           9.0666    1.2250    0.0000 H       1  UNL1        0.0265
     23 H           6.3996    1.2250    0.0000 H       1  UNL1        0.0265
     24 H           5.6025    1.2250    0.0000 H       1  UNL1        0.0265
     25 H           9.9326   -0.2249    0.0000 H       1  UNL1        0.0266
     26 H          10.7297   -0.2249    0.0000 H       1  UNL1        0.0266
     27 H           4.7365   -0.2249    0.0000 H       1  UNL1        0.0270
     28 H           5.5335   -0.2249    0.0000 H       1  UNL1        0.0270
     29 H          11.5957    1.2250    0.0000 H       1  UNL1        0.0287
     30 H          10.7987    1.2250    0.0000 H       1  UNL1        0.0287
     31 H           4.6675    1.2250    0.0000 H       1  UNL1        0.0377
     32 H           3.8705    1.2250    0.0000 H       1  UNL1        0.0377
     33 H          11.6647   -0.2249    0.0000 H       1  UNL1        0.0557
     34 H          12.4617   -0.2249    0.0000 H       1  UNL1        0.0557
     35 H          13.4662    0.4400    0.0000 H       1  UNL1        0.2094
     36 H           2.0000    0.4400    0.0000 H       1  UNL1        0.2951
@<TRIPOS>BOND
     1     1    13    1
     2     1    35    1
     3     2    14    1
     4     2    36    1
     5     3    14    2
     6     4     5    1
     7     4     6    1
     8     4    15    1
     9     4    16    1
    10     5     7    1
    11     5    17    1
    12     5    18    1
    13     6     8    1
    14     6    19    1
    15     6    20    1
    16     7     9    1
    17     7    21    1
    18     7    22    1
    19     8    10    1
    20     8    23    1
    21     8    24    1
    22     9    11    1
    23     9    25    1
    24     9    26    1
    25    10    12    1
    26    10    27    1
    27    10    28    1
    28    11    13    1
    29    11    29    1
    30    11    30    1
    31    12    14    1
    32    12    31    1
    33    12    32    1
    34    13    33    1
    35    13    34    1
