@<TRIPOS>MOLECULE
IMPHY002977
 40 42 0 0 0
SMALL
GASTEIGER

@<TRIPOS>ATOM
      1 O          10.7404    0.5547    0.0000 O.3     1  UNL1       -0.4526
      2 O          10.7404   -1.0547    0.0000 O.3     1  UNL1       -0.4526
      3 O           3.7320    1.7500    0.0000 O.3     1  UNL1       -0.4943
      4 O           7.1962    1.7500    0.0000 O.2     1  UNL1       -0.5061
      5 O           2.0000   -1.2500    0.0000 O.3     1  UNL1       -0.4950
      6 O           5.4641    1.7500    0.0000 O.2     1  UNL1       -0.2870
      7 C           9.7942    0.2500    0.0000 C.ar    1  UNL1        0.1669
      8 C           8.0622    0.2500    0.0000 C.ar    1  UNL1        0.0202
      9 C           9.7942   -0.7500    0.0000 C.ar    1  UNL1        0.1663
     10 C           8.9282    0.7500    0.0000 C.ar    1  UNL1       -0.0055
     11 C           8.0622   -0.7500    0.0000 C.ar    1  UNL1       -0.0474
     12 C           8.9282   -1.2500    0.0000 C.ar    1  UNL1       -0.0155
     13 C           7.1962    0.7500    0.0000 C.2     1  UNL1        0.1277
     14 C           4.5981    0.2500    0.0000 C.ar    1  UNL1        0.0636
     15 C          11.3241   -0.2500    0.0000 C.3     1  UNL1        0.2332
     16 C           3.7320    0.7500    0.0000 C.ar    1  UNL1        0.1343
     17 C           6.3301    0.2500    0.0000 C.2     1  UNL1        0.0278
     18 C           5.4641    0.7500    0.0000 C.2     1  UNL1        0.1930
     19 C           4.5981   -0.7500    0.0000 C.ar    1  UNL1       -0.0440
     20 C           2.8660    0.2500    0.0000 C.ar    1  UNL1        0.0225
     21 C           2.8660   -0.7500    0.0000 C.ar    1  UNL1        0.1236
     22 C           3.7320   -1.2500    0.0000 C.ar    1  UNL1       -0.0190
     23 C           2.8660    2.2500    0.0000 C.3     1  UNL1        0.0788
     24 C           2.0000   -2.2500    0.0000 C.3     1  UNL1        0.0788
     25 H           8.9282    1.3700    0.0000 H       1  UNL1        0.0662
     26 H           7.5252   -1.0600    0.0000 H       1  UNL1        0.0626
     27 H           8.9282   -1.8700    0.0000 H       1  UNL1        0.0655
     28 H          11.7849   -0.6647    0.0000 H       1  UNL1        0.1166
     29 H          11.7849    0.1647    0.0000 H       1  UNL1        0.1166
     30 H           6.3301   -0.3700    0.0000 H       1  UNL1        0.0693
     31 H           5.1350   -1.0600    0.0000 H       1  UNL1        0.0627
     32 H           2.3291    0.5600    0.0000 H       1  UNL1        0.0691
     33 H           3.7320   -1.8700    0.0000 H       1  UNL1        0.0654
     34 H           6.6592    2.0600    0.0000 H       1  UNL1        0.2922
     35 H           3.1760    2.7869    0.0000 H       1  UNL1        0.0660
     36 H           2.3291    2.5600    0.0000 H       1  UNL1        0.0660
     37 H           2.5560    1.7131    0.0000 H       1  UNL1        0.0660
     38 H           1.3800   -2.2500    0.0000 H       1  UNL1        0.0660
     39 H           2.0000   -2.8700    0.0000 H       1  UNL1        0.0660
     40 H           2.6200   -2.2500    0.0000 H       1  UNL1        0.0660
@<TRIPOS>BOND
     1     1     7    1
     2     1    15    1
     3     2     9    1
     4     2    15    1
     5     3    16    1
     6     3    23    1
     7     4    13    1
     8     4    34    1
     9     5    21    1
    10     5    24    1
    11     6    18    2
    12     7     9   ar
    13     7    10   ar
    14     8    10   ar
    15     8    11   ar
    16     8    13    1
    17     9    12   ar
    18    10    25    1
    19    11    12   ar
    20    11    26    1
    21    12    27    1
    22    13    17    2
    23    14    16   ar
    24    14    18    1
    25    14    19   ar
    26    15    28    1
    27    15    29    1
    28    16    20   ar
    29    17    18    1
    30    17    30    1
    31    19    22   ar
    32    19    31    1
    33    20    21   ar
    34    20    32    1
    35    21    22   ar
    36    22    33    1
    37    23    35    1
    38    23    36    1
    39    23    37    1
    40    24    38    1
    41    24    39    1
    42    24    40    1
