@<TRIPOS>MOLECULE
IMPHY005321
 51 53 0 0 0
SMALL
GASTEIGER

@<TRIPOS>ATOM
      1 O           5.1482    2.7238    0.0000 O.3     1  UNL1       -0.4573
      2 O           5.7812   -0.4847    0.0000 O.3     1  UNL1       -0.4594
      3 O           4.6840   -1.9721    0.0000 O.2     1  UNL1       -0.2920
      4 O           6.8881    3.0820    0.0000 O.2     1  UNL1       -0.2453
      5 O           7.4789   -0.1415    0.0000 O.2     1  UNL1       -0.2505
      6 C           4.0984   -0.2951    0.0000 C.3     1  UNL1        0.0741
      7 C           3.1974    0.1388    0.0000 C.3     1  UNL1       -0.0040
      8 C           4.9994    0.1388    0.0000 C.3     1  UNL1        0.1263
      9 C           5.2219    1.1138    0.0000 C.3     1  UNL1        0.0653
     10 C           2.9749    1.1138    0.0000 C.3     1  UNL1       -0.0332
     11 C           4.5984    1.8956    0.0000 C.3     1  UNL1        0.1140
     12 C           3.5984    1.8956    0.0000 C.3     1  UNL1       -0.0118
     13 C           3.9624   -1.2798    0.0000 C.2     1  UNL1        0.1657
     14 C           4.9994   -0.7289    0.0000 C.3     1  UNL1       -0.0485
     15 C           2.5124   -0.5815    0.0000 C.2     1  UNL1       -0.0763
     16 C           6.1517    1.4655    0.0000 C.2     1  UNL1        0.0396
     17 C           2.0000    1.3363    0.0000 C.3     1  UNL1       -0.0617
     18 C           2.9842   -1.4564    0.0000 C.2     1  UNL1       -0.0221
     19 C           6.1062    2.4585    0.0000 C.2     1  UNL1        0.3354
     20 C           7.1449    1.5816    0.0000 C.2     1  UNL1       -0.0882
     21 C           6.7292   -0.8032    0.0000 C.2     1  UNL1        0.3102
     22 C           6.9273   -1.7833    0.0000 C.3     1  UNL1        0.0534
     23 C           7.8752   -2.1018    0.0000 C.3     1  UNL1       -0.0432
     24 C           6.1775   -2.4450    0.0000 C.3     1  UNL1       -0.0523
     25 C           8.0734   -3.0820    0.0000 C.3     1  UNL1       -0.0645
     26 H           2.3778    0.3639    0.0000 H       1  UNL1        0.0356
     27 H           5.5846    0.3436    0.0000 H       1  UNL1        0.0751
     28 H           5.8627    0.5553    0.0000 H       1  UNL1        0.0423
     29 H           2.7702    1.6990    0.0000 H       1  UNL1        0.0305
     30 H           4.1966    2.6446    0.0000 H       1  UNL1        0.0741
     31 H           3.7364    2.5000    0.0000 H       1  UNL1        0.0304
     32 H           3.0398    2.1646    0.0000 H       1  UNL1        0.0304
     33 H           4.7304   -1.2876    0.0000 H       1  UNL1        0.0241
     34 H           5.5580   -0.9980    0.0000 H       1  UNL1        0.0241
     35 H           5.2684   -0.1703    0.0000 H       1  UNL1        0.0241
     36 H           1.8978   -0.4993    0.0000 H       1  UNL1        0.0576
     37 H           2.1380    1.9407    0.0000 H       1  UNL1        0.0233
     38 H           1.3955    1.4742    0.0000 H       1  UNL1        0.0233
     39 H           1.8620    0.7318    0.0000 H       1  UNL1        0.0233
     40 H           2.7152   -2.0150    0.0000 H       1  UNL1        0.0649
     41 H           7.5152    1.0843    0.0000 H       1  UNL1        0.0540
     42 H           7.3904    2.1509    0.0000 H       1  UNL1        0.0540
     43 H           6.1216   -1.5126    0.0000 H       1  UNL1        0.0410
     44 H           8.4950   -2.0864    0.0000 H       1  UNL1        0.0270
     45 H           7.9676   -1.4887    0.0000 H       1  UNL1        0.0270
     46 H           5.7673   -1.9802    0.0000 H       1  UNL1        0.0238
     47 H           5.7126   -2.8553    0.0000 H       1  UNL1        0.0238
     48 H           6.5878   -2.9099    0.0000 H       1  UNL1        0.0238
     49 H           7.4657   -3.2048    0.0000 H       1  UNL1        0.0230
     50 H           8.1962   -3.6897    0.0000 H       1  UNL1        0.0230
     51 H           8.6811   -2.9591    0.0000 H       1  UNL1        0.0230
@<TRIPOS>BOND
     1     1    11    1
     2     1    19    1
     3     8     2    1
     4     2    21    1
     5     3    13    2
     6     4    19    2
     7     5    21    2
     8     6     7    1
     9     6     8    1
    10     6    13    1
    11     6    14    1
    12     7    10    1
    13     7    15    1
    14     7    26    1
    15     8     9    1
    16     8    27    1
    17     9    11    1
    18     9    16    1
    19     9    28    1
    20    10    12    1
    21    10    17    1
    22    10    29    1
    23    11    12    1
    24    11    30    1
    25    12    31    1
    26    12    32    1
    27    13    18    1
    28    14    33    1
    29    14    34    1
    30    14    35    1
    31    15    18    2
    32    15    36    1
    33    16    19    1
    34    16    20    2
    35    17    37    1
    36    17    38    1
    37    17    39    1
    38    18    40    1
    39    20    41    1
    40    20    42    1
    41    21    22    1
    42    22    23    1
    43    22    24    1
    44    22    43    1
    45    23    25    1
    46    23    44    1
    47    23    45    1
    48    24    46    1
    49    24    47    1
    50    24    48    1
    51    25    49    1
    52    25    50    1
    53    25    51    1
