@<TRIPOS>MOLECULE
IMPHY002806
 43 47 0 0 0
SMALL
GASTEIGER

@<TRIPOS>ATOM
      1 O           4.7343    3.2384    0.0000 O.3     1  UNL1       -0.4852
      2 O           6.7642    5.0778    0.0000 O.3     1  UNL1       -0.3855
      3 O           2.7684    0.1569    0.0000 O.2     1  UNL1       -0.4237
      4 O           6.2706    0.1538    0.0000 O.3     1  UNL1       -0.5055
      5 O           2.0314   -1.5102    0.0000 O.2     1  UNL1       -0.4239
      6 O           5.3665   -1.3431    0.0000 O.2     1  UNL1       -0.2861
      7 O           2.1904   -5.1114    0.0000 O.3     1  UNL1       -0.5066
      8 C           5.7642    3.3458    0.0000 C.3     1  UNL1        0.1323
      9 C           6.2642    4.2118    0.0000 C.3     1  UNL1        0.0974
     10 C           6.1862    2.4002    0.0000 C.3     1  UNL1        0.0192
     11 C           5.4185    1.7053    0.0000 C.ar    1  UNL1        0.0401
     12 C           4.5164    2.2262    0.0000 C.ar    1  UNL1        0.1313
     13 C           5.4105    0.6637    0.0000 C.ar    1  UNL1        0.1380
     14 C           5.3982    4.7118    0.0000 C.3     1  UNL1       -0.0328
     15 C           7.1302    3.7118    0.0000 C.3     1  UNL1       -0.0328
     16 C           4.5005    0.1569    0.0000 C.ar    1  UNL1        0.1066
     17 C           3.6184    1.6984    0.0000 C.ar    1  UNL1        0.0237
     18 C           3.6344    0.6569    0.0000 C.ar    1  UNL1        0.1497
     19 C           4.5005   -0.8431    0.0000 C.ar    1  UNL1        0.2076
     20 C           3.6344   -1.3431    0.0000 C.ar    1  UNL1        0.1135
     21 C           2.7684   -0.8431    0.0000 C.ar    1  UNL1        0.3042
     22 C           3.4252   -2.3149    0.0000 C.ar    1  UNL1        0.0352
     23 C           2.4365   -2.4180    0.0000 C.ar    1  UNL1        0.1433
     24 C           4.0460   -3.1437    0.0000 C.ar    1  UNL1       -0.0467
     25 C           2.0000   -3.3569    0.0000 C.ar    1  UNL1        0.0229
     26 C           3.6313   -4.0925    0.0000 C.ar    1  UNL1       -0.0194
     27 C           2.6014   -4.1998    0.0000 C.ar    1  UNL1        0.1204
     28 H           5.4268    3.8659    0.0000 H       1  UNL1        0.0765
     29 H           6.5516    1.8993    0.0000 H       1  UNL1        0.0352
     30 H           6.7227    2.7110    0.0000 H       1  UNL1        0.0352
     31 H           5.7082    5.2487    0.0000 H       1  UNL1        0.0258
     32 H           4.8612    5.0218    0.0000 H       1  UNL1        0.0258
     33 H           5.0882    4.1749    0.0000 H       1  UNL1        0.0258
     34 H           6.8202    3.1749    0.0000 H       1  UNL1        0.0258
     35 H           7.6672    3.4018    0.0000 H       1  UNL1        0.0258
     36 H           7.4402    4.2487    0.0000 H       1  UNL1        0.0258
     37 H           3.0779    2.0022    0.0000 H       1  UNL1        0.0691
     38 H           6.4542    5.6148    0.0000 H       1  UNL1        0.2103
     39 H           6.8111    0.4575    0.0000 H       1  UNL1        0.2922
     40 H           4.6619   -3.0723    0.0000 H       1  UNL1        0.0626
     41 H           1.3826   -3.4141    0.0000 H       1  UNL1        0.0691
     42 H           3.9972   -4.5930    0.0000 H       1  UNL1        0.0654
     43 H           2.5524   -5.6148    0.0000 H       1  UNL1        0.2921
@<TRIPOS>BOND
     1     1     8    1
     2     1    12    1
     3     2     9    1
     4     2    38    1
     5     3    18   ar
     6     3    21   ar
     7     4    13    1
     8     4    39    1
     9     5    21   ar
    10     5    23   ar
    11     6    19    2
    12     7    27    1
    13     7    43    1
    14     8     9    1
    15     8    10    1
    16     8    28    1
    17     9    14    1
    18     9    15    1
    19    10    11    1
    20    10    29    1
    21    10    30    1
    22    11    12   ar
    23    11    13   ar
    24    12    17   ar
    25    13    16   ar
    26    14    31    1
    27    14    32    1
    28    14    33    1
    29    15    34    1
    30    15    35    1
    31    15    36    1
    32    16    18   ar
    33    16    19   ar
    34    17    18   ar
    35    17    37    1
    36    19    20   ar
    37    20    21   ar
    38    20    22   ar
    39    22    23   ar
    40    22    24   ar
    41    23    25   ar
    42    24    26   ar
    43    24    40    1
    44    25    27   ar
    45    25    41    1
    46    26    27   ar
    47    26    42    1
