@<TRIPOS>MOLECULE
IMPHY004564
 51 53 0 0 0
SMALL
GASTEIGER

@<TRIPOS>ATOM
      1 O           6.0682    0.3246    0.0000 O.2     1  UNL1       -0.4507
      2 O           7.8003    2.3246    0.0000 O.3     1  UNL1       -0.4883
      3 O           8.6663   -2.1754    0.0000 O.3     1  UNL1       -0.5063
      4 O          10.3984    0.8246    0.0000 O.3     1  UNL1       -0.4950
      5 O           6.0682    3.3246    0.0000 O.2     1  UNL1       -0.2830
      6 O           4.3198    3.3592    0.0000 O.3     1  UNL1       -0.5058
      7 O           2.5381    0.3005    0.0000 O.3     1  UNL1       -0.5065
      8 C           7.8003    0.3246    0.0000 C.ar    1  UNL1        0.0314
      9 C           7.8003   -0.6754    0.0000 C.ar    1  UNL1        0.0088
     10 C           6.9343    0.8246    0.0000 C.ar    1  UNL1        0.1813
     11 C           6.9343   -1.1754    0.0000 C.3     1  UNL1       -0.0051
     12 C           6.9343    1.8246    0.0000 C.ar    1  UNL1        0.2107
     13 C           8.6663   -1.1754    0.0000 C.ar    1  UNL1        0.1245
     14 C           8.6663    0.8246    0.0000 C.ar    1  UNL1       -0.0087
     15 C           5.2022    1.8246    0.0000 C.ar    1  UNL1        0.1092
     16 C           5.2022    0.8246    0.0000 C.ar    1  UNL1        0.1465
     17 C           6.0682    2.3246    0.0000 C.ar    1  UNL1        0.2381
     18 C           9.5323    0.3246    0.0000 C.ar    1  UNL1        0.1243
     19 C           9.5323   -0.6754    0.0000 C.ar    1  UNL1        0.0218
     20 C           6.9343   -2.1754    0.0000 C.2     1  UNL1       -0.0808
     21 C           4.3083    2.3593    0.0000 C.ar    1  UNL1        0.1348
     22 C           4.3083    0.2899    0.0000 C.ar    1  UNL1        0.0231
     23 C           6.0682   -2.6754    0.0000 C.2     1  UNL1       -0.0793
     24 C           3.4022    0.8038    0.0000 C.ar    1  UNL1        0.1239
     25 C           3.4022    1.8454    0.0000 C.ar    1  UNL1        0.0223
     26 C           6.0682   -3.6754    0.0000 C.3     1  UNL1       -0.0440
     27 C           5.2022   -2.1754    0.0000 C.3     1  UNL1       -0.0440
     28 C           7.8003    3.3246    0.0000 C.3     1  UNL1        0.0791
     29 C          11.2644    0.3246    0.0000 C.3     1  UNL1        0.0788
     30 H           6.7222   -0.5928    0.0000 H       1  UNL1        0.0357
     31 H           6.3237   -1.2830    0.0000 H       1  UNL1        0.0357
     32 H           8.6663    1.4446    0.0000 H       1  UNL1        0.0661
     33 H          10.0693   -0.9854    0.0000 H       1  UNL1        0.0691
     34 H           7.4712   -2.4854    0.0000 H       1  UNL1        0.0575
     35 H           4.3154   -0.3300    0.0000 H       1  UNL1        0.0691
     36 H           2.8665    2.1575    0.0000 H       1  UNL1        0.0691
     37 H           9.2033   -2.4854    0.0000 H       1  UNL1        0.2921
     38 H           5.4482   -3.6754    0.0000 H       1  UNL1        0.0274
     39 H           5.5122   -1.6385    0.0000 H       1  UNL1        0.0274
     40 H           4.6653   -1.8654    0.0000 H       1  UNL1        0.0274
     41 H           4.8922   -2.7123    0.0000 H       1  UNL1        0.0274
     42 H           6.0682   -4.2954    0.0000 H       1  UNL1        0.0274
     43 H           6.6882   -3.6754    0.0000 H       1  UNL1        0.0274
     44 H           8.4203    3.3246    0.0000 H       1  UNL1        0.0660
     45 H           7.8003    3.9446    0.0000 H       1  UNL1        0.0660
     46 H           7.1803    3.3246    0.0000 H       1  UNL1        0.0660
     47 H           3.7865    3.6754    0.0000 H       1  UNL1        0.2922
     48 H          10.9544   -0.2123    0.0000 H       1  UNL1        0.0660
     49 H          11.8013    0.0146    0.0000 H       1  UNL1        0.0660
     50 H          11.5744    0.8615    0.0000 H       1  UNL1        0.0660
     51 H           2.0000    0.6084    0.0000 H       1  UNL1        0.2921
@<TRIPOS>BOND
     1     1    10   ar
     2     1    16   ar
     3     2    12    1
     4     2    28    1
     5     3    13    1
     6     3    37    1
     7     4    18    1
     8     4    29    1
     9     5    17    2
    10     6    21    1
    11     6    47    1
    12     7    24    1
    13     7    51    1
    14     8     9   ar
    15     8    10    1
    16     8    14   ar
    17     9    11    1
    18     9    13   ar
    19    10    12   ar
    20    11    20    1
    21    11    30    1
    22    11    31    1
    23    12    17   ar
    24    13    19   ar
    25    14    18   ar
    26    14    32    1
    27    15    16   ar
    28    15    17   ar
    29    15    21   ar
    30    16    22   ar
    31    18    19   ar
    32    19    33    1
    33    20    23    2
    34    20    34    1
    35    21    25   ar
    36    22    24   ar
    37    22    35    1
    38    23    26    1
    39    23    27    1
    40    24    25   ar
    41    25    36    1
    42    26    38    1
    43    26    42    1
    44    26    43    1
    45    27    39    1
    46    27    40    1
    47    27    41    1
    48    28    44    1
    49    28    45    1
    50    28    46    1
    51    29    48    1
    52    29    49    1
    53    29    50    1
