@<TRIPOS>MOLECULE
IMPHY001174
 153 162 0 0 0
SMALL
GASTEIGER

@<TRIPOS>ATOM
      1 O          14.3523    6.0022    0.0000 O.3     1  UNL1       -0.3448
      2 O          12.5799    6.8970    0.0000 O.3     1  UNL1       -0.3480
      3 O          11.2265    3.9483    0.0000 O.2     1  UNL1       -0.2968
      4 O          12.9292   -2.2419    0.0000 O.3     1  UNL1       -0.3454
      5 O          11.1972   -2.2419    0.0000 O.3     1  UNL1       -0.3405
      6 O          12.9292   -4.2419    0.0000 O.3     1  UNL1       -0.3841
      7 O          11.1972   -5.2419    0.0000 O.3     1  UNL1       -0.3864
      8 O           9.4651   -4.2419    0.0000 O.3     1  UNL1       -0.3401
      9 O           9.4651   -1.2419    0.0000 O.3     1  UNL1       -0.3924
     10 O           8.5991   -2.7419    0.0000 O.3     1  UNL1       -0.3405
     11 O           7.7331   -5.2419    0.0000 O.3     1  UNL1       -0.3377
     12 O           6.0010   -4.2419    0.0000 O.3     1  UNL1       -0.3401
     13 O           6.0010   -2.2419    0.0000 O.3     1  UNL1       -0.3865
     14 O           6.4062   -6.3552    0.0000 O.3     1  UNL1       -0.3405
     15 O           6.8671   -0.7419    0.0000 O.3     1  UNL1       -0.3924
     16 O           5.1350   -2.7419    0.0000 O.3     1  UNL1       -0.3461
     17 O           9.0187   -6.7739    0.0000 O.3     1  UNL1       -0.3841
     18 O           8.3347   -8.6534    0.0000 O.3     1  UNL1       -0.3864
     19 O           4.2690   -5.2419    0.0000 O.3     1  UNL1       -0.3841
     20 O           6.3650   -9.0006    0.0000 O.3     1  UNL1       -0.3865
     21 O           2.5369   -4.2419    0.0000 O.3     1  UNL1       -0.3864
     22 O           2.5369   -2.2419    0.0000 O.3     1  UNL1       -0.3869
     23 O           4.7374   -8.4082    0.0000 O.3     1  UNL1       -0.3924
     24 C          13.8264    3.4583    0.0000 C.3     1  UNL1       -0.0231
     25 C          12.9585    3.9550    0.0000 C.3     1  UNL1        0.0349
     26 C          13.8303    2.4583    0.0000 C.3     1  UNL1       -0.0335
     27 C          13.1640    4.9276    0.0000 C.3     1  UNL1        0.0052
     28 C          12.9662    1.9550    0.0000 C.3     1  UNL1       -0.0256
     29 C          12.9542    0.9134    0.0000 C.3     1  UNL1       -0.0256
     30 C          14.1523    5.0345    0.0000 C.3     1  UNL1        0.0664
     31 C          14.5609    4.1282    0.0000 C.3     1  UNL1       -0.0222
     32 C          12.7617    5.8302    0.0000 C.3     1  UNL1        0.0164
     33 C          13.8542    0.3891    0.0000 C.3     1  UNL1       -0.0330
     34 C          12.0983    2.4517    0.0000 C.3     1  UNL1        0.0100
     35 C          14.7422    1.9550    0.0000 C.3     1  UNL1       -0.0494
     36 C          12.0944    3.4516    0.0000 C.2     1  UNL1        0.1401
     37 C          13.4946    6.4930    0.0000 C.3     1  UNL1        0.1732
     38 C          14.7543    0.9134    0.0000 C.3     1  UNL1       -0.0494
     39 C          12.0906    4.4516    0.0000 C.3     1  UNL1       -0.0522
     40 C          12.0043    0.3891    0.0000 C.3     1  UNL1       -0.0448
     41 C          13.8668   -0.6958    0.0000 C.3     1  UNL1       -0.0232
     42 C          12.0901    1.4168    0.0000 C.3     1  UNL1       -0.0590
     43 C          11.9917   -0.6958    0.0000 C.3     1  UNL1       -0.0260
     44 C          12.9292   -1.2419    0.0000 C.3     1  UNL1        0.0621
     45 C          11.7833    6.0369    0.0000 C.3     1  UNL1       -0.0572
     46 C          14.3019    7.0832    0.0000 C.3     1  UNL1        0.0020
     47 C          14.1944    8.0774    0.0000 C.3     1  UNL1       -0.0435
     48 C          13.2796    8.4814    0.0000 C.3     1  UNL1       -0.0201
     49 C          12.4724    7.8912    0.0000 C.3     1  UNL1        0.0535
     50 C          13.1721    9.4756    0.0000 C.3     1  UNL1       -0.0603
     51 C          12.0632   -2.7419    0.0000 C.3     1  UNL1        0.1882
     52 C          12.0632   -3.7419    0.0000 C.3     1  UNL1        0.1341
     53 C          11.1972   -4.2419    0.0000 C.3     1  UNL1        0.1144
     54 C          10.3312   -2.7419    0.0000 C.3     1  UNL1        0.1134
     55 C          10.3312   -3.7419    0.0000 C.3     1  UNL1        0.1184
     56 C           9.4651   -2.2419    0.0000 C.3     1  UNL1        0.0730
     57 C           8.5991   -3.7419    0.0000 C.3     1  UNL1        0.1888
     58 C           7.7331   -4.2419    0.0000 C.3     1  UNL1        0.1410
     59 C           6.8671   -3.7419    0.0000 C.3     1  UNL1        0.1209
     60 C           7.7331   -2.2419    0.0000 C.3     1  UNL1        0.1130
     61 C           6.8671   -2.7419    0.0000 C.3     1  UNL1        0.1123
     62 C           7.7331   -1.2419    0.0000 C.3     1  UNL1        0.0730
     63 C           7.3910   -6.1816    0.0000 C.3     1  UNL1        0.1885
     64 C           5.1350   -3.7419    0.0000 C.3     1  UNL1        0.1880
     65 C           8.0339   -6.9476    0.0000 C.3     1  UNL1        0.1341
     66 C           7.6918   -7.8873    0.0000 C.3     1  UNL1        0.1141
     67 C           4.2690   -4.2419    0.0000 C.3     1  UNL1        0.1341
     68 C           6.0642   -7.2949    0.0000 C.3     1  UNL1        0.1130
     69 C           6.7070   -8.0610    0.0000 C.3     1  UNL1        0.1119
     70 C           3.4030   -3.7419    0.0000 C.3     1  UNL1        0.1137
     71 C           3.4030   -2.7419    0.0000 C.3     1  UNL1        0.1069
     72 C           4.2690   -2.2419    0.0000 C.3     1  UNL1        0.0792
     73 C           5.0794   -7.4685    0.0000 C.3     1  UNL1        0.0730
     74 H          14.6047    3.1166    0.0000 H       1  UNL1        0.0314
     75 H          14.5615    2.8918    0.0000 H       1  UNL1        0.0307
     76 H          12.3187    4.8380    0.0000 H       1  UNL1        0.0339
     77 H          13.7007    1.5272    0.0000 H       1  UNL1        0.0313
     78 H          14.9972    5.1277    0.0000 H       1  UNL1        0.0600
     79 H          14.9283    3.6288    0.0000 H       1  UNL1        0.0293
     80 H          15.0962    4.4411    0.0000 H       1  UNL1        0.0293
     81 H          12.3719    5.3480    0.0000 H       1  UNL1        0.0354
     82 H          14.5936   -0.0302    0.0000 H       1  UNL1        0.0307
     83 H          11.4873    2.5570    0.0000 H       1  UNL1        0.0345
     84 H          11.8885    1.8682    0.0000 H       1  UNL1        0.0345
     85 H          15.3543    1.8560    0.0000 H       1  UNL1        0.0268
     86 H          14.9445    2.5411    0.0000 H       1  UNL1        0.0268
     87 H          14.9701    0.3322    0.0000 H       1  UNL1        0.0268
     88 H          15.3639    1.0266    0.0000 H       1  UNL1        0.0268
     89 H          12.3985    4.9898    0.0000 H       1  UNL1        0.0239
     90 H          11.5524    4.7596    0.0000 H       1  UNL1        0.0239
     91 H          11.7826    3.9135    0.0000 H       1  UNL1        0.0239
     92 H          11.8020    0.9752    0.0000 H       1  UNL1        0.0271
     93 H          11.3922    0.2901    0.0000 H       1  UNL1        0.0271
     94 H          14.0826   -1.2770    0.0000 H       1  UNL1        0.0293
     95 H          14.4764   -0.5826    0.0000 H       1  UNL1        0.0293
     96 H          12.4021    1.9525    0.0000 H       1  UNL1        0.0235
     97 H          11.5543    1.7288    0.0000 H       1  UNL1        0.0235
     98 H          11.7780    0.8810    0.0000 H       1  UNL1        0.0235
     99 H          11.3821   -0.5826    0.0000 H       1  UNL1        0.0290
    100 H          11.7759   -1.2770    0.0000 H       1  UNL1        0.0290
    101 H          12.3917   -1.5508    0.0000 H       1  UNL1        0.0597
    102 H          11.9114    6.6435    0.0000 H       1  UNL1        0.0234
    103 H          11.1766    6.1650    0.0000 H       1  UNL1        0.0234
    104 H          11.6551    5.4303    0.0000 H       1  UNL1        0.0234
    105 H          14.5753    6.5268    0.0000 H       1  UNL1        0.0317
    106 H          14.8974    7.2559    0.0000 H       1  UNL1        0.0317
    107 H          14.8130    8.0360    0.0000 H       1  UNL1        0.0270
    108 H          14.3426    8.6794    0.0000 H       1  UNL1        0.0270
    109 H          13.7801    8.8473    0.0000 H       1  UNL1        0.0320
    110 H          12.1989    8.4476    0.0000 H       1  UNL1        0.0563
    111 H          11.8769    7.7185    0.0000 H       1  UNL1        0.0563
    112 H          13.7885    9.5422    0.0000 H       1  UNL1        0.0233
    113 H          13.1055   10.0920    0.0000 H       1  UNL1        0.0233
    114 H          12.5557    9.4090    0.0000 H       1  UNL1        0.0233
    115 H          12.6002   -3.0519    0.0000 H       1  UNL1        0.0937
    116 H          12.0632   -4.3619    0.0000 H       1  UNL1        0.0671
    117 H          10.6603   -4.5519    0.0000 H       1  UNL1        0.0648
    118 H          10.3312   -2.1219    0.0000 H       1  UNL1        0.0647
    119 H           9.7942   -3.4319    0.0000 H       1  UNL1        0.0651
    120 H          13.4662   -3.9319    0.0000 H       1  UNL1        0.2101
    121 H           8.8546   -2.1342    0.0000 H       1  UNL1        0.0584
    122 H           9.2531   -2.8245    0.0000 H       1  UNL1        0.0584
    123 H          11.7341   -5.5519    0.0000 H       1  UNL1        0.2100
    124 H           8.5991   -4.3619    0.0000 H       1  UNL1        0.0938
    125 H           8.9282   -0.9319    0.0000 H       1  UNL1        0.2095
    126 H           7.1962   -4.5519    0.0000 H       1  UNL1        0.0675
    127 H           6.3301   -3.4319    0.0000 H       1  UNL1        0.0651
    128 H           8.2700   -1.9319    0.0000 H       1  UNL1        0.0647
    129 H           6.8671   -2.1219    0.0000 H       1  UNL1        0.0647
    130 H           8.3437   -1.3496    0.0000 H       1  UNL1        0.0584
    131 H           7.9451   -0.6593    0.0000 H       1  UNL1        0.0584
    132 H           6.9925   -5.7066    0.0000 H       1  UNL1        0.0938
    133 H           6.0010   -1.6219    0.0000 H       1  UNL1        0.2100
    134 H           5.1350   -4.3619    0.0000 H       1  UNL1        0.0937
    135 H           8.4324   -7.4226    0.0000 H       1  UNL1        0.0671
    136 H           7.4798   -8.4699    0.0000 H       1  UNL1        0.0648
    137 H           3.7320   -4.5519    0.0000 H       1  UNL1        0.0671
    138 H           5.6656   -6.8199    0.0000 H       1  UNL1        0.0647
    139 H           6.8671   -0.1219    0.0000 H       1  UNL1        0.2095
    140 H           6.0964   -8.1686    0.0000 H       1  UNL1        0.0647
    141 H           2.8660   -3.4319    0.0000 H       1  UNL1        0.0647
    142 H           3.4030   -2.1219    0.0000 H       1  UNL1        0.0643
    143 H           4.6675   -1.7669    0.0000 H       1  UNL1        0.0587
    144 H           3.8705   -1.7669    0.0000 H       1  UNL1        0.0587
    145 H           9.4173   -7.2489    0.0000 H       1  UNL1        0.2101
    146 H           5.0794   -6.8485    0.0000 H       1  UNL1        0.0584
    147 H           4.4688   -7.3608    0.0000 H       1  UNL1        0.0584
    148 H           8.9453   -8.5457    0.0000 H       1  UNL1        0.2100
    149 H           3.7320   -5.5519    0.0000 H       1  UNL1        0.2101
    150 H           6.7635   -9.4756    0.0000 H       1  UNL1        0.2100
    151 H           2.0000   -3.9319    0.0000 H       1  UNL1        0.2100
    152 H           2.5369   -1.6219    0.0000 H       1  UNL1        0.2100
    153 H           4.1268   -8.5158    0.0000 H       1  UNL1        0.2095
@<TRIPOS>BOND
     1     1    30    1
     2    37     1    1
     3     2    37    1
     4     2    49    1
     5     3    36    2
     6    44     4    1
     7    51     4    1
     8     5    51    1
     9     5    54    1
    10    52     6    1
    11     6   120    1
    12    53     7    1
    13     7   123    1
    14    55     8    1
    15    57     8    1
    16     9    56    1
    17     9   125    1
    18    10    57    1
    19    10    60    1
    20    58    11    1
    21    63    11    1
    22    59    12    1
    23    64    12    1
    24    61    13    1
    25    13   133    1
    26    14    63    1
    27    14    68    1
    28    15    62    1
    29    15   139    1
    30    16    64    1
    31    16    72    1
    32    65    17    1
    33    17   145    1
    34    66    18    1
    35    18   148    1
    36    67    19    1
    37    19   149    1
    38    69    20    1
    39    20   150    1
    40    70    21    1
    41    21   151    1
    42    71    22    1
    43    22   152    1
    44    23    73    1
    45    23   153    1
    46    24    25    1
    47    24    26    1
    48    24    31    1
    49    24    74    1
    50    25    27    1
    51    25    36    1
    52    25    39    1
    53    26    28    1
    54    26    35    1
    55    26    75    1
    56    27    30    1
    57    27    32    1
    58    27    76    1
    59    28    29    1
    60    28    34    1
    61    28    77    1
    62    29    33    1
    63    29    40    1
    64    29    42    1
    65    30    31    1
    66    30    78    1
    67    31    79    1
    68    31    80    1
    69    32    37    1
    70    32    45    1
    71    32    81    1
    72    33    38    1
    73    33    41    1
    74    33    82    1
    75    34    36    1
    76    34    83    1
    77    34    84    1
    78    35    38    1
    79    35    85    1
    80    35    86    1
    81    37    46    1
    82    38    87    1
    83    38    88    1
    84    39    89    1
    85    39    90    1
    86    39    91    1
    87    40    43    1
    88    40    92    1
    89    40    93    1
    90    41    44    1
    91    41    94    1
    92    41    95    1
    93    42    96    1
    94    42    97    1
    95    42    98    1
    96    43    44    1
    97    43    99    1
    98    43   100    1
    99    44   101    1
   100    45   102    1
   101    45   103    1
   102    45   104    1
   103    46    47    1
   104    46   105    1
   105    46   106    1
   106    47    48    1
   107    47   107    1
   108    47   108    1
   109    48    49    1
   110    48    50    1
   111    48   109    1
   112    49   110    1
   113    49   111    1
   114    50   112    1
   115    50   113    1
   116    50   114    1
   117    51    52    1
   118    51   115    1
   119    52    53    1
   120    52   116    1
   121    53    55    1
   122    53   117    1
   123    54    55    1
   124    54    56    1
   125    54   118    1
   126    55   119    1
   127    56   121    1
   128    56   122    1
   129    57    58    1
   130    57   124    1
   131    58    59    1
   132    58   126    1
   133    59    61    1
   134    59   127    1
   135    60    61    1
   136    60    62    1
   137    60   128    1
   138    61   129    1
   139    62   130    1
   140    62   131    1
   141    63    65    1
   142    63   132    1
   143    64    67    1
   144    64   134    1
   145    65    66    1
   146    65   135    1
   147    66    69    1
   148    66   136    1
   149    67    70    1
   150    67   137    1
   151    68    69    1
   152    68    73    1
   153    68   138    1
   154    69   140    1
   155    70    71    1
   156    70   141    1
   157    71    72    1
   158    71   142    1
   159    72   143    1
   160    72   144    1
   161    73   146    1
   162    73   147    1
