@<TRIPOS>MOLECULE
IMPHY013278
 35 36 0 0 0
SMALL
GASTEIGER

@<TRIPOS>ATOM
      1 O           7.2241   -1.0347    0.0000 O.3     1  UNL1       -0.4813
      2 O           4.5981    0.5000    0.0000 O.2     1  UNL1       -0.4263
      3 O           5.4641    2.0000    0.0000 O.2     1  UNL1       -0.2444
      4 C           8.1301   -0.5208    0.0000 C.3     1  UNL1        0.1235
      5 C           3.7320   -1.0000    0.0000 C.3     1  UNL1        0.0144
      6 C           4.5981   -0.5000    0.0000 C.ar    1  UNL1        0.1154
      7 C           6.3301   -0.5000    0.0000 C.ar    1  UNL1        0.1389
      8 C           2.8660   -0.5000    0.0000 C.3     1  UNL1       -0.0464
      9 C           6.3301    0.5000    0.0000 C.ar    1  UNL1        0.1009
     10 C           8.1301    0.5208    0.0000 C.2     1  UNL1       -0.0407
     11 C           5.4641   -1.0000    0.0000 C.ar    1  UNL1        0.0194
     12 C           9.1301   -0.5247    0.0000 C.3     1  UNL1       -0.0215
     13 C           8.6268   -1.3888    0.0000 C.3     1  UNL1       -0.0215
     14 C           3.7320   -2.0000    0.0000 C.3     1  UNL1       -0.0555
     15 C           7.2241    1.0347    0.0000 C.2     1  UNL1       -0.0444
     16 C           5.4641    1.0000    0.0000 C.ar    1  UNL1        0.3477
     17 C           2.0000   -1.0000    0.0000 C.3     1  UNL1       -0.0646
     18 H           4.2690   -1.3100    0.0000 H       1  UNL1        0.0376
     19 H           3.2646   -0.0251    0.0000 H       1  UNL1        0.0269
     20 H           2.4675   -0.0251    0.0000 H       1  UNL1        0.0269
     21 H           8.6659    0.8329    0.0000 H       1  UNL1        0.0611
     22 H           5.4641   -1.6200    0.0000 H       1  UNL1        0.0688
     23 H           9.1277   -1.1447    0.0000 H       1  UNL1        0.0271
     24 H           9.7501   -0.5271    0.0000 H       1  UNL1        0.0271
     25 H           9.1325    0.0953    0.0000 H       1  UNL1        0.0271
     26 H           8.0887   -1.6967    0.0000 H       1  UNL1        0.0271
     27 H           8.9347   -1.9269    0.0000 H       1  UNL1        0.0271
     28 H           9.1649   -1.0808    0.0000 H       1  UNL1        0.0271
     29 H           3.1120   -2.0000    0.0000 H       1  UNL1        0.0236
     30 H           3.7320   -2.6200    0.0000 H       1  UNL1        0.0236
     31 H           4.3520   -2.0000    0.0000 H       1  UNL1        0.0236
     32 H           7.2169    1.6546    0.0000 H       1  UNL1        0.0625
     33 H           1.6900   -0.4631    0.0000 H       1  UNL1        0.0230
     34 H           1.4631   -1.3100    0.0000 H       1  UNL1        0.0230
     35 H           2.3100   -1.5369    0.0000 H       1  UNL1        0.0230
@<TRIPOS>BOND
     1     1     4    1
     2     1     7    1
     3     2     6   ar
     4     2    16   ar
     5     3    16    2
     6     4    10    1
     7     4    12    1
     8     4    13    1
     9     5     6    1
    10     5     8    1
    11     5    14    1
    12     5    18    1
    13     6    11   ar
    14     7     9   ar
    15     7    11   ar
    16     8    17    1
    17     8    19    1
    18     8    20    1
    19     9    15    1
    20     9    16   ar
    21    10    15    2
    22    10    21    1
    23    11    22    1
    24    12    23    1
    25    12    24    1
    26    12    25    1
    27    13    26    1
    28    13    27    1
    29    13    28    1
    30    14    29    1
    31    14    30    1
    32    14    31    1
    33    15    32    1
    34    17    33    1
    35    17    34    1
    36    17    35    1
