@<TRIPOS>MOLECULE
IMPHY013783
 21 19 0 0 0
SMALL
GASTEIGER

@<TRIPOS>ATOM
      1 CL          4.0010    1.9030    0.0000 Cl      1  UNL1       -0.1199
      2 CL          1.7505    4.8059    0.0000 Cl      2  UNL2        0.0000
      3 N           1.4030    1.4030    0.0000 N.4     1  UNL1        0.2377
      4 C           2.2690    1.9030    0.0000 C.3     1  UNL1       -0.0171
      5 C           0.5369    0.9030    0.0000 C.3     1  UNL1       -0.0418
      6 C           0.9030    2.2690    0.0000 C.3     1  UNL1       -0.0418
      7 C           1.9030    0.5369    0.0000 C.3     1  UNL1       -0.0418
      8 C           3.1350    1.4030    0.0000 C.3     1  UNL1        0.0627
      9 H           2.6675    2.3779    0.0000 H       1  UNL1        0.0826
     10 H           1.8705    2.3779    0.0000 H       1  UNL1        0.0826
     11 H           0.2269    1.4399    0.0000 H       1  UNL1        0.0778
     12 H           0.0000    0.5930    0.0000 H       1  UNL1        0.0778
     13 H           0.8469    0.3660    0.0000 H       1  UNL1        0.0778
     14 H           1.4399    2.5790    0.0000 H       1  UNL1        0.0778
     15 H           0.5930    2.8059    0.0000 H       1  UNL1        0.0778
     16 H           0.3660    1.9590    0.0000 H       1  UNL1        0.0778
     17 H           1.3660    0.2269    0.0000 H       1  UNL1        0.0778
     18 H           2.2130    0.0000    0.0000 H       1  UNL1        0.0778
     19 H           2.4399    0.8469    0.0000 H       1  UNL1        0.0778
     20 H           2.7365    0.9280    0.0000 H       1  UNL1        0.0482
     21 H           3.5335    0.9280    0.0000 H       1  UNL1        0.0482
@<TRIPOS>UNITY_ATOM_ATTR
2 1
charge -1
3 1
charge 1
@<TRIPOS>BOND
     1     1     8    1
     2     3     4    1
     3     3     5    1
     4     3     6    1
     5     3     7    1
     6     4     8    1
     7     4     9    1
     8     4    10    1
     9     5    11    1
    10     5    12    1
    11     5    13    1
    12     6    14    1
    13     6    15    1
    14     6    16    1
    15     7    17    1
    16     7    18    1
    17     7    19    1
    18     8    20    1
    19     8    21    1
