@<TRIPOS>MOLECULE
IMPHY013059
 56 59 0 0 0
SMALL
GASTEIGER

@<TRIPOS>ATOM
      1 O           8.5179    2.8359    0.0000 O.2     1  UNL1       -0.2974
      2 N           2.5357   -2.2160    0.0000 N.3     1  UNL1       -0.3270
      3 C           7.9288    0.8364    0.0000 C.3     1  UNL1       -0.0195
      4 C           7.9288   -0.1636    0.0000 C.3     1  UNL1       -0.0316
      5 C           7.0628   -0.6636    0.0000 C.3     1  UNL1       -0.0306
      6 C           6.1968   -0.1636    0.0000 C.3     1  UNL1       -0.0285
      7 C           5.2868   -0.6705    0.0000 C.3     1  UNL1       -0.0079
      8 C           7.0628    1.3364    0.0000 C.3     1  UNL1       -0.0464
      9 C           8.8750    1.1411    0.0000 C.3     1  UNL1        0.0229
     10 C           6.1968    0.8364    0.0000 C.3     1  UNL1       -0.0486
     11 C           8.8750   -0.4683    0.0000 C.3     1  UNL1       -0.0488
     12 C           9.4586    0.3364    0.0000 C.3     1  UNL1       -0.0427
     13 C           7.0789   -1.7051    0.0000 C.3     1  UNL1       -0.0311
     14 C           5.2787   -1.7121    0.0000 C.2     1  UNL1       -0.0658
     15 C           7.9288    1.8364    0.0000 C.3     1  UNL1       -0.0587
     16 C           4.3599   -0.1064    0.0000 C.3     1  UNL1       -0.0422
     17 C           6.1808   -2.2329    0.0000 C.2     1  UNL1       -0.0839
     18 C           5.2945    0.3295    0.0000 C.3     1  UNL1       -0.0556
     19 C           4.3433   -2.2618    0.0000 C.3     1  UNL1       -0.0160
     20 C           3.4120   -0.6343    0.0000 C.3     1  UNL1       -0.0367
     21 C           9.1857    2.0916    0.0000 C.2     1  UNL1        0.1339
     22 C           3.4037   -1.7193    0.0000 C.3     1  UNL1        0.0086
     23 C          10.1642    2.2979    0.0000 C.3     1  UNL1       -0.0058
     24 H           8.0188   -1.0088    0.0000 H       1  UNL1        0.0309
     25 H           7.8022   -1.0829    0.0000 H       1  UNL1        0.0309
     26 H           6.9329    0.2614    0.0000 H       1  UNL1        0.0312
     27 H           7.4613    1.8113    0.0000 H       1  UNL1        0.0271
     28 H           6.6643    1.8113    0.0000 H       1  UNL1        0.0271
     29 H           9.4875    1.2373    0.0000 H       1  UNL1        0.0383
     30 H           5.9847    1.4190    0.0000 H       1  UNL1        0.0268
     31 H           5.5862    0.7287    0.0000 H       1  UNL1        0.0268
     32 H           8.6240   -1.0352    0.0000 H       1  UNL1        0.0268
     33 H           9.4124   -0.7776    0.0000 H       1  UNL1        0.0268
     34 H           9.9195   -0.0783    0.0000 H       1  UNL1        0.0272
     35 H           9.9195    0.7511    0.0000 H       1  UNL1        0.0272
     36 H           7.2969   -2.2855    0.0000 H       1  UNL1        0.0310
     37 H           7.6880   -1.5896    0.0000 H       1  UNL1        0.0310
     38 H           8.5488    1.8364    0.0000 H       1  UNL1        0.0235
     39 H           7.9288    2.4564    0.0000 H       1  UNL1        0.0235
     40 H           7.3088    1.8364    0.0000 H       1  UNL1        0.0235
     41 H           4.7681    0.3603    0.0000 H       1  UNL1        0.0274
     42 H           3.9700    0.3757    0.0000 H       1  UNL1        0.0274
     43 H           6.1832   -2.8529    0.0000 H       1  UNL1        0.0572
     44 H           5.9145    0.3247    0.0000 H       1  UNL1        0.0238
     45 H           5.2993    0.9495    0.0000 H       1  UNL1        0.0238
     46 H           4.6745    0.3343    0.0000 H       1  UNL1        0.0238
     47 H           3.9460   -2.7378    0.0000 H       1  UNL1        0.0325
     48 H           4.7443   -2.7347    0.0000 H       1  UNL1        0.0325
     49 H           3.2075   -0.0490    0.0000 H       1  UNL1        0.0281
     50 H           2.8004   -0.7357    0.0000 H       1  UNL1        0.0281
     51 H           3.4025   -2.3393    0.0000 H       1  UNL1        0.0461
     52 H          10.2921    1.6912    0.0000 H       1  UNL1        0.0306
     53 H          10.7709    2.4257    0.0000 H       1  UNL1        0.0306
     54 H          10.0364    2.9045    0.0000 H       1  UNL1        0.0306
     55 H           2.0000   -1.9039    0.0000 H       1  UNL1        0.1185
     56 H           2.5334   -2.8359    0.0000 H       1  UNL1        0.1185
@<TRIPOS>BOND
     1     1    21    2
     2    22     2    1
     3     2    55    1
     4     2    56    1
     5     3     4    1
     6     3     8    1
     7     3     9    1
     8     3    15    1
     9     4     5    1
    10     4    11    1
    11     4    24    1
    12     5     6    1
    13     5    13    1
    14     5    25    1
    15     6     7    1
    16     6    10    1
    17     6    26    1
    18     7    14    1
    19     7    16    1
    20     7    18    1
    21     8    10    1
    22     8    27    1
    23     8    28    1
    24     9    12    1
    25     9    21    1
    26     9    29    1
    27    10    30    1
    28    10    31    1
    29    11    12    1
    30    11    32    1
    31    11    33    1
    32    12    34    1
    33    12    35    1
    34    13    17    1
    35    13    36    1
    36    13    37    1
    37    14    17    2
    38    14    19    1
    39    15    38    1
    40    15    39    1
    41    15    40    1
    42    16    20    1
    43    16    41    1
    44    16    42    1
    45    17    43    1
    46    18    44    1
    47    18    45    1
    48    18    46    1
    49    19    22    1
    50    19    47    1
    51    19    48    1
    52    20    22    1
    53    20    49    1
    54    20    50    1
    55    21    23    1
    56    22    51    1
    57    23    52    1
    58    23    53    1
    59    23    54    1
