@<TRIPOS>MOLECULE
IMPHY011065
 48 48 0 0 0
SMALL
GASTEIGER

@<TRIPOS>ATOM
      1 O           6.3301   -0.3450    0.0000 O.3     1  UNL1       -0.4611
      2 O           4.5981   -2.3450    0.0000 O.3     1  UNL1       -0.3887
      3 O           7.1962    1.1550    0.0000 O.2     1  UNL1       -0.2512
      4 C           4.5981   -0.3450    0.0000 C.3     1  UNL1        0.0250
      5 C           4.5981    1.6550    0.0000 C.3     1  UNL1       -0.0045
      6 C           3.7320    1.1550    0.0000 C.3     1  UNL1       -0.0110
      7 C           3.7320    0.1550    0.0000 C.3     1  UNL1       -0.0369
      8 C           5.4641    0.1550    0.0000 C.3     1  UNL1        0.1093
      9 C           5.4641    1.1550    0.0000 C.3     1  UNL1       -0.0059
     10 C           4.5981   -1.3450    0.0000 C.3     1  UNL1        0.0667
     11 C           4.0981    2.5210    0.0000 C.3     1  UNL1       -0.0554
     12 C           2.8660    1.6550    0.0000 C.2     1  UNL1       -0.0758
     13 C           5.0981    2.5210    0.0000 C.2     1  UNL1       -0.0845
     14 C           3.5981   -1.3450    0.0000 C.3     1  UNL1       -0.0360
     15 C           5.5981   -1.3450    0.0000 C.3     1  UNL1       -0.0360
     16 C           2.0000    1.1550    0.0000 C.3     1  UNL1       -0.0437
     17 C           2.8660    2.6550    0.0000 C.2     1  UNL1       -0.0994
     18 C           6.0981    2.5210    0.0000 C.2     1  UNL1       -0.1021
     19 C           7.1962    0.1550    0.0000 C.2     1  UNL1        0.3042
     20 C           8.0622   -0.3450    0.0000 C.3     1  UNL1        0.0332
     21 H           3.8620   -0.7700    0.0000 H       1  UNL1        0.0364
     22 H           3.7320    1.7750    0.0000 H       1  UNL1        0.0354
     23 H           3.1215    0.2627    0.0000 H       1  UNL1        0.0276
     24 H           3.5200   -0.4276    0.0000 H       1  UNL1        0.0276
     25 H           5.4641   -0.4650    0.0000 H       1  UNL1        0.0738
     26 H           6.0747    1.0473    0.0000 H       1  UNL1        0.0309
     27 H           5.6762    1.7376    0.0000 H       1  UNL1        0.0309
     28 H           4.6350    2.8310    0.0000 H       1  UNL1        0.0238
     29 H           3.7881    3.0580    0.0000 H       1  UNL1        0.0238
     30 H           3.5611    2.2110    0.0000 H       1  UNL1        0.0238
     31 H           4.7881    3.0580    0.0000 H       1  UNL1        0.0572
     32 H           3.5981   -0.7250    0.0000 H       1  UNL1        0.0257
     33 H           2.9781   -1.3450    0.0000 H       1  UNL1        0.0257
     34 H           3.5981   -1.9650    0.0000 H       1  UNL1        0.0257
     35 H           5.5981   -1.9650    0.0000 H       1  UNL1        0.0257
     36 H           6.2181   -1.3450    0.0000 H       1  UNL1        0.0257
     37 H           5.5981   -0.7250    0.0000 H       1  UNL1        0.0257
     38 H           4.0611   -2.6550    0.0000 H       1  UNL1        0.2101
     39 H           1.6900    1.6919    0.0000 H       1  UNL1        0.0274
     40 H           1.4631    0.8450    0.0000 H       1  UNL1        0.0274
     41 H           2.3100    0.6181    0.0000 H       1  UNL1        0.0274
     42 H           3.4030    2.9650    0.0000 H       1  UNL1        0.0534
     43 H           2.3291    2.9650    0.0000 H       1  UNL1        0.0534
     44 H           6.4081    1.9841    0.0000 H       1  UNL1        0.0532
     45 H           6.4081    3.0580    0.0000 H       1  UNL1        0.0532
     46 H           7.7522   -0.8819    0.0000 H       1  UNL1        0.0342
     47 H           8.5991   -0.6550    0.0000 H       1  UNL1        0.0342
     48 H           8.3722    0.1919    0.0000 H       1  UNL1        0.0342
@<TRIPOS>BOND
     1     8     1    1
     2     1    19    1
     3     2    10    1
     4     2    38    1
     5     3    19    2
     6     4     7    1
     7     4     8    1
     8     4    10    1
     9     4    21    1
    10     5     6    1
    11     5     9    1
    12     5    11    1
    13     5    13    1
    14     6     7    1
    15     6    12    1
    16     6    22    1
    17     7    23    1
    18     7    24    1
    19     8     9    1
    20     8    25    1
    21     9    26    1
    22     9    27    1
    23    10    14    1
    24    10    15    1
    25    11    28    1
    26    11    29    1
    27    11    30    1
    28    12    16    1
    29    12    17    2
    30    13    18    2
    31    13    31    1
    32    14    32    1
    33    14    33    1
    34    14    34    1
    35    15    35    1
    36    15    36    1
    37    15    37    1
    38    16    39    1
    39    16    40    1
    40    16    41    1
    41    17    42    1
    42    17    43    1
    43    18    44    1
    44    18    45    1
    45    19    20    1
    46    20    46    1
    47    20    47    1
    48    20    48    1
