@<TRIPOS>MOLECULE
IMPHY002737
 75 78 0 0 0
SMALL
GASTEIGER

@<TRIPOS>ATOM
      1 O           6.0010    1.0000    0.0000 O.3     1  UNL1       -0.3484
      2 O           6.8671    3.5000    0.0000 O.3     1  UNL1       -0.3947
      3 O           5.1350   -0.5000    0.0000 O.3     1  UNL1       -0.3461
      4 O          10.3475   -0.5346    0.0000 O.3     1  UNL1       -0.4910
      5 O           4.2690    2.0000    0.0000 O.3     1  UNL1       -0.3841
      6 O          12.1292    2.5242    0.0000 O.3     1  UNL1       -0.4913
      7 O          12.1292    0.4758    0.0000 O.3     1  UNL1       -0.5009
      8 O           2.5369    1.0000    0.0000 O.3     1  UNL1       -0.3864
      9 O           2.5369   -1.0000    0.0000 O.3     1  UNL1       -0.3869
     10 O          10.3312   -2.5000    0.0000 O.3     1  UNL1       -0.4913
     11 O           6.8671   -2.5000    0.0000 O.3     1  UNL1       -0.4913
     12 O           8.5991   -3.5000    0.0000 O.3     1  UNL1       -0.5009
     13 C           7.7331    1.0000    0.0000 C.3     1  UNL1       -0.0013
     14 C           7.7331    2.0000    0.0000 C.3     1  UNL1       -0.0081
     15 C           8.5991    0.5000    0.0000 C.3     1  UNL1        0.0185
     16 C           8.5991    2.5000    0.0000 C.3     1  UNL1       -0.0219
     17 C           9.4651    1.0000    0.0000 C.ar    1  UNL1        0.0091
     18 C           6.8671    0.5000    0.0000 C.3     1  UNL1        0.0548
     19 C           9.4651    2.0000    0.0000 C.ar    1  UNL1       -0.0361
     20 C           6.8671    2.5000    0.0000 C.3     1  UNL1        0.0477
     21 C           8.5991   -0.5000    0.0000 C.ar    1  UNL1       -0.0324
     22 C          10.3591    0.4653    0.0000 C.ar    1  UNL1        0.1690
     23 C          10.3591    2.5347    0.0000 C.ar    1  UNL1       -0.0126
     24 C           5.1350    0.5000    0.0000 C.3     1  UNL1        0.1875
     25 C           4.2690    1.0000    0.0000 C.3     1  UNL1        0.1341
     26 C           7.7331   -1.0000    0.0000 C.ar    1  UNL1       -0.0123
     27 C           9.4651   -1.0000    0.0000 C.ar    1  UNL1       -0.0123
     28 C          11.2651    0.9792    0.0000 C.ar    1  UNL1        0.2013
     29 C          11.2651    2.0208    0.0000 C.ar    1  UNL1        0.1653
     30 C           3.4030    0.5000    0.0000 C.3     1  UNL1        0.1137
     31 C           3.4030   -0.5000    0.0000 C.3     1  UNL1        0.1069
     32 C           4.2690   -1.0000    0.0000 C.3     1  UNL1        0.0792
     33 C           9.4651   -2.0000    0.0000 C.ar    1  UNL1        0.1653
     34 C           7.7331   -2.0000    0.0000 C.ar    1  UNL1        0.1653
     35 C           8.5991   -2.5000    0.0000 C.ar    1  UNL1        0.2010
     36 C          11.2077   -1.0446    0.0000 C.3     1  UNL1        0.0790
     37 C          12.1254    3.5241    0.0000 C.3     1  UNL1        0.0790
     38 C          10.3312   -3.5000    0.0000 C.3     1  UNL1        0.0790
     39 C           6.8671   -3.5000    0.0000 C.3     1  UNL1        0.0790
     40 H           7.7331    0.3800    0.0000 H       1  UNL1        0.0335
     41 H           7.7331    2.6200    0.0000 H       1  UNL1        0.0330
     42 H           9.1360    0.1900    0.0000 H       1  UNL1        0.0402
     43 H           8.9976    2.9750    0.0000 H       1  UNL1        0.0317
     44 H           8.2006    2.9750    0.0000 H       1  UNL1        0.0317
     45 H           6.4685    0.0251    0.0000 H       1  UNL1        0.0564
     46 H           7.2656    0.0251    0.0000 H       1  UNL1        0.0564
     47 H           6.2565    2.6077    0.0000 H       1  UNL1        0.0560
     48 H           6.6550    1.9174    0.0000 H       1  UNL1        0.0560
     49 H          10.3519    3.1546    0.0000 H       1  UNL1        0.0658
     50 H           5.1350    1.1200    0.0000 H       1  UNL1        0.0937
     51 H           3.7320    1.3100    0.0000 H       1  UNL1        0.0671
     52 H           7.1962   -0.6900    0.0000 H       1  UNL1        0.0658
     53 H          10.0021   -0.6900    0.0000 H       1  UNL1        0.0658
     54 H           3.9650    1.1200    0.0000 H       1  UNL1        0.0647
     55 H           3.4030   -1.1200    0.0000 H       1  UNL1        0.0643
     56 H           6.3301    3.8100    0.0000 H       1  UNL1        0.2094
     57 H           3.8705   -1.4750    0.0000 H       1  UNL1        0.0587
     58 H           4.6675   -1.4750    0.0000 H       1  UNL1        0.0587
     59 H           3.7320    2.3100    0.0000 H       1  UNL1        0.2101
     60 H          12.6674    0.7838    0.0000 H       1  UNL1        0.2924
     61 H           2.0000    0.6900    0.0000 H       1  UNL1        0.2100
     62 H          10.8915   -1.5779    0.0000 H       1  UNL1        0.0660
     63 H          11.7410   -1.3608    0.0000 H       1  UNL1        0.0660
     64 H          11.5239   -0.5113    0.0000 H       1  UNL1        0.0660
     65 H           2.5369   -1.6200    0.0000 H       1  UNL1        0.2100
     66 H          12.7454    3.5265    0.0000 H       1  UNL1        0.0660
     67 H          12.1230    4.1441    0.0000 H       1  UNL1        0.0660
     68 H          11.5054    3.5218    0.0000 H       1  UNL1        0.0660
     69 H           8.0622   -3.8100    0.0000 H       1  UNL1        0.2924
     70 H           9.7112   -3.5000    0.0000 H       1  UNL1        0.0660
     71 H          10.3312   -4.1200    0.0000 H       1  UNL1        0.0660
     72 H          10.9512   -3.5000    0.0000 H       1  UNL1        0.0660
     73 H           6.2471   -3.5000    0.0000 H       1  UNL1        0.0660
     74 H           6.8671   -4.1200    0.0000 H       1  UNL1        0.0660
     75 H           7.4871   -3.5000    0.0000 H       1  UNL1        0.0660
@<TRIPOS>BOND
     1     1    18    1
     2    24     1    1
     3     2    20    1
     4     2    56    1
     5     3    24    1
     6     3    32    1
     7     4    22    1
     8     4    36    1
     9    25     5    1
    10     5    59    1
    11     6    29    1
    12     6    37    1
    13     7    28    1
    14     7    60    1
    15    30     8    1
    16     8    61    1
    17    31     9    1
    18     9    65    1
    19    10    33    1
    20    10    38    1
    21    11    34    1
    22    11    39    1
    23    12    35    1
    24    12    69    1
    25    13    14    1
    26    13    15    1
    27    13    18    1
    28    13    40    1
    29    14    16    1
    30    14    20    1
    31    14    41    1
    32    15    17    1
    33    15    21    1
    34    15    42    1
    35    16    19    1
    36    16    43    1
    37    16    44    1
    38    17    19   ar
    39    17    22   ar
    40    18    45    1
    41    18    46    1
    42    19    23   ar
    43    20    47    1
    44    20    48    1
    45    21    26   ar
    46    21    27   ar
    47    22    28   ar
    48    23    29   ar
    49    23    49    1
    50    24    25    1
    51    24    50    1
    52    25    30    1
    53    25    51    1
    54    26    34   ar
    55    26    52    1
    56    27    33   ar
    57    27    53    1
    58    28    29   ar
    59    30    31    1
    60    30    54    1
    61    31    32    1
    62    31    55    1
    63    32    57    1
    64    32    58    1
    65    33    35   ar
    66    34    35   ar
    67    36    62    1
    68    36    63    1
    69    36    64    1
    70    37    66    1
    71    37    67    1
    72    37    68    1
    73    38    70    1
    74    38    71    1
    75    38    72    1
    76    39    73    1
    77    39    74    1
    78    39    75    1
