@<TRIPOS>MOLECULE
IMPHY006908
 33 35 0 0 0
SMALL
GASTEIGER

@<TRIPOS>ATOM
      1 O           7.2901   -1.5903    0.0000 O.3     1  UNL1       -0.4814
      2 O           5.5301    1.4444    0.0000 O.3     1  UNL1       -0.4937
      3 O           3.7702   -1.5903    0.0000 O.2     1  UNL1       -0.4219
      4 O           2.0000   -1.5798    0.0000 O.2     1  UNL1       -0.2452
      5 C           8.1962   -1.0764    0.0000 C.3     1  UNL1        0.1235
      6 C           6.3961   -0.0556    0.0000 C.ar    1  UNL1        0.0589
      7 C           6.3961   -1.0556    0.0000 C.ar    1  UNL1        0.1359
      8 C           8.1962   -0.0348    0.0000 C.2     1  UNL1       -0.0408
      9 C           9.1962   -1.0803    0.0000 C.3     1  UNL1       -0.0215
     10 C           8.6928   -1.9444    0.0000 C.3     1  UNL1       -0.0215
     11 C           7.2901    0.4790    0.0000 C.2     1  UNL1       -0.0478
     12 C           5.5301    0.4444    0.0000 C.ar    1  UNL1        0.1413
     13 C           4.6641   -0.0556    0.0000 C.ar    1  UNL1        0.0600
     14 C           5.5301   -1.5556    0.0000 C.ar    1  UNL1        0.0240
     15 C           4.6641   -1.0556    0.0000 C.ar    1  UNL1        0.1461
     16 C           3.7702    0.4790    0.0000 C.ar    1  UNL1       -0.0408
     17 C           2.8641   -0.0348    0.0000 C.ar    1  UNL1        0.0237
     18 C           2.8641   -1.0764    0.0000 C.ar    1  UNL1        0.3372
     19 C           4.6641    1.9444    0.0000 C.3     1  UNL1        0.0788
     20 H           8.7319    0.2773    0.0000 H       1  UNL1        0.0611
     21 H           8.1547   -2.2523    0.0000 H       1  UNL1        0.0271
     22 H           9.0008   -2.4825    0.0000 H       1  UNL1        0.0271
     23 H           9.2310   -1.6364    0.0000 H       1  UNL1        0.0271
     24 H           9.1938   -1.7003    0.0000 H       1  UNL1        0.0271
     25 H           9.8162   -1.0827    0.0000 H       1  UNL1        0.0271
     26 H           9.1985   -0.4603    0.0000 H       1  UNL1        0.0271
     27 H           7.2829    1.0990    0.0000 H       1  UNL1        0.0624
     28 H           5.5301   -2.1756    0.0000 H       1  UNL1        0.0691
     29 H           3.7773    1.0990    0.0000 H       1  UNL1        0.0628
     30 H           2.3284    0.2773    0.0000 H       1  UNL1        0.0689
     31 H           4.9741    2.4813    0.0000 H       1  UNL1        0.0660
     32 H           4.1272    2.2544    0.0000 H       1  UNL1        0.0660
     33 H           4.3541    1.4074    0.0000 H       1  UNL1        0.0660
@<TRIPOS>BOND
     1     1     5    1
     2     1     7    1
     3     2    12    1
     4     2    19    1
     5     3    15   ar
     6     3    18   ar
     7     4    18    2
     8     5     8    1
     9     5     9    1
    10     5    10    1
    11     6     7   ar
    12     6    11    1
    13     6    12   ar
    14     7    14   ar
    15     8    11    2
    16     8    20    1
    17     9    24    1
    18     9    25    1
    19     9    26    1
    20    10    21    1
    21    10    22    1
    22    10    23    1
    23    11    27    1
    24    12    13   ar
    25    13    15   ar
    26    13    16   ar
    27    14    15   ar
    28    14    28    1
    29    16    17   ar
    30    16    29    1
    31    17    18   ar
    32    17    30    1
    33    19    31    1
    34    19    32    1
    35    19    33    1
