@<TRIPOS>MOLECULE
IMPHY013022
 30 31 0 0 0
SMALL
GASTEIGER

@<TRIPOS>ATOM
      1 O           2.5369   -1.2500    0.0000 O.3     1  UNL1       -0.5059
      2 O           6.0010   -1.2500    0.0000 O.3     1  UNL1       -0.5059
      3 O           3.4030    0.2500    0.0000 O.2     1  UNL1       -0.2870
      4 C           4.2690   -1.2500    0.0000 C.ar    1  UNL1        0.1043
      5 C           3.4030   -1.7500    0.0000 C.ar    1  UNL1        0.1312
      6 C           5.1350   -1.7500    0.0000 C.ar    1  UNL1        0.1312
      7 C           4.2690   -0.2500    0.0000 C.2     1  UNL1        0.1931
      8 C           6.0010    1.7500    0.0000 C.ar    1  UNL1       -0.0249
      9 C           5.1350    0.2500    0.0000 C.2     1  UNL1       -0.0135
     10 C           3.4030   -2.7500    0.0000 C.ar    1  UNL1       -0.0192
     11 C           5.1350   -2.7500    0.0000 C.ar    1  UNL1       -0.0192
     12 C           5.1350    1.2500    0.0000 C.2     1  UNL1       -0.0510
     13 C           4.2690   -3.2500    0.0000 C.ar    1  UNL1       -0.0548
     14 C           6.8671    1.2500    0.0000 C.ar    1  UNL1       -0.0546
     15 C           6.0010    2.7500    0.0000 C.ar    1  UNL1       -0.0546
     16 C           7.7331    1.7500    0.0000 C.ar    1  UNL1       -0.0612
     17 C           6.8671    3.2500    0.0000 C.ar    1  UNL1       -0.0612
     18 C           7.7331    2.7500    0.0000 C.ar    1  UNL1       -0.0617
     19 H           5.6720   -0.0600    0.0000 H       1  UNL1        0.0656
     20 H           2.8660   -3.0600    0.0000 H       1  UNL1        0.0654
     21 H           5.6720   -3.0600    0.0000 H       1  UNL1        0.0654
     22 H           4.5981    1.5600    0.0000 H       1  UNL1        0.0625
     23 H           4.2690   -3.8700    0.0000 H       1  UNL1        0.0620
     24 H           6.8671    0.6300    0.0000 H       1  UNL1        0.0623
     25 H           5.4641    3.0600    0.0000 H       1  UNL1        0.0623
     26 H           8.2700    1.4400    0.0000 H       1  UNL1        0.0618
     27 H           6.8671    3.8700    0.0000 H       1  UNL1        0.0618
     28 H           8.2700    3.0600    0.0000 H       1  UNL1        0.0618
     29 H           2.0000   -1.5600    0.0000 H       1  UNL1        0.2922
     30 H           6.5380   -1.5600    0.0000 H       1  UNL1        0.2922
@<TRIPOS>BOND
     1     1     5    1
     2     1    29    1
     3     2     6    1
     4     2    30    1
     5     3     7    2
     6     4     5   ar
     7     4     6   ar
     8     4     7    1
     9     5    10   ar
    10     6    11   ar
    11     7     9    1
    12     8    12    1
    13     8    14   ar
    14     8    15   ar
    15     9    12    2
    16     9    19    1
    17    10    13   ar
    18    10    20    1
    19    11    13   ar
    20    11    21    1
    21    12    22    1
    22    13    23    1
    23    14    16   ar
    24    14    24    1
    25    15    17   ar
    26    15    25    1
    27    16    18   ar
    28    16    26    1
    29    17    18   ar
    30    17    27    1
    31    18    28    1
