@<TRIPOS>MOLECULE
IMPHY010891
 80 84 0 0 0
SMALL
GASTEIGER

@<TRIPOS>ATOM
      1 O           8.5991   -1.7675    0.0000 O.3     1  UNL1       -0.3598
      2 O           5.1350   -1.7675    0.0000 O.3     1  UNL1       -0.3313
      3 O           6.8671   -1.7675    0.0000 O.3     1  UNL1       -0.4602
      4 O           9.4651    0.7325    0.0000 O.3     1  UNL1       -0.3862
      5 O          11.1972   -0.2675    0.0000 O.3     1  UNL1       -0.3865
      6 O          11.1972   -2.2675    0.0000 O.3     1  UNL1       -0.3865
      7 O           5.1350   -4.7675    0.0000 O.3     1  UNL1       -0.3864
      8 O           6.8671   -3.7675    0.0000 O.3     1  UNL1       -0.3829
      9 O           3.4030   -3.7675    0.0000 O.3     1  UNL1       -0.3865
     10 O          10.3312   -3.7675    0.0000 O.3     1  UNL1       -0.4621
     11 O           8.6431    1.2393    0.0000 O.2     1  UNL1       -0.4540
     12 O           2.5369   -2.2675    0.0000 O.3     1  UNL1       -0.3924
     13 O           5.1350    1.2325    0.0000 O.3     1  UNL1       -0.5058
     14 O           5.9793    2.7639    0.0000 O.2     1  UNL1       -0.2869
     15 O           9.4651   -5.2675    0.0000 O.2     1  UNL1       -0.2512
     16 O          12.1229    4.2675    0.0000 O.3     1  UNL1       -0.4951
     17 C           8.5991   -0.7675    0.0000 C.3     1  UNL1        0.1194
     18 C           9.4651   -0.2675    0.0000 C.3     1  UNL1        0.1139
     19 C          10.3312   -0.7675    0.0000 C.3     1  UNL1        0.1121
     20 C          10.3312   -1.7675    0.0000 C.3     1  UNL1        0.1128
     21 C           9.4651   -2.2675    0.0000 C.3     1  UNL1        0.1218
     22 C           7.7331   -0.2675    0.0000 C.ar    1  UNL1        0.0685
     23 C           5.1350   -3.7675    0.0000 C.3     1  UNL1        0.1152
     24 C           6.0010   -3.2675    0.0000 C.3     1  UNL1        0.1454
     25 C           4.2690   -3.2675    0.0000 C.3     1  UNL1        0.1120
     26 C           6.0010   -2.2675    0.0000 C.3     1  UNL1        0.2308
     27 C           4.2690   -2.2675    0.0000 C.3     1  UNL1        0.1140
     28 C           9.4651   -3.2675    0.0000 C.3     1  UNL1        0.1211
     29 C           6.8671   -0.7675    0.0000 C.ar    1  UNL1        0.1367
     30 C           7.7331    0.7325    0.0000 C.ar    1  UNL1        0.1520
     31 C           3.4030   -1.7675    0.0000 C.3     1  UNL1        0.0731
     32 C           6.8671    1.2325    0.0000 C.ar    1  UNL1        0.1058
     33 C           6.0010   -0.2675    0.0000 C.ar    1  UNL1        0.0230
     34 C           6.0010    0.7325    0.0000 C.ar    1  UNL1        0.1347
     35 C           6.8510    2.2740    0.0000 C.ar    1  UNL1        0.1966
     36 C           8.6511    2.2809    0.0000 C.ar    1  UNL1        0.1392
     37 C           7.7490    2.8017    0.0000 C.ar    1  UNL1        0.0288
     38 C          10.3312   -4.7675    0.0000 C.2     1  UNL1        0.3040
     39 C           9.5191    2.7776    0.0000 C.ar    1  UNL1        0.0176
     40 C          11.1972   -5.2675    0.0000 C.3     1  UNL1        0.0332
     41 C          10.3832    2.2742    0.0000 C.ar    1  UNL1       -0.0476
     42 C           9.5229    3.7776    0.0000 C.ar    1  UNL1       -0.0476
     43 C          11.2511    2.7709    0.0000 C.ar    1  UNL1       -0.0193
     44 C          10.3909    4.2742    0.0000 C.ar    1  UNL1       -0.0193
     45 C          11.2550    3.7709    0.0000 C.ar    1  UNL1        0.1201
     46 C          12.1268    5.2675    0.0000 C.3     1  UNL1        0.0788
     47 H           8.5991    0.0825    0.0000 H       1  UNL1        0.0676
     48 H          10.0021    0.0425    0.0000 H       1  UNL1        0.0649
     49 H          10.8681   -1.0775    0.0000 H       1  UNL1        0.0647
     50 H          10.3312   -2.3875    0.0000 H       1  UNL1        0.0647
     51 H           8.9282   -2.5775    0.0000 H       1  UNL1        0.0657
     52 H           5.6720   -4.0775    0.0000 H       1  UNL1        0.0648
     53 H           6.5380   -2.9575    0.0000 H       1  UNL1        0.0683
     54 H           4.2690   -3.8875    0.0000 H       1  UNL1        0.0647
     55 H           6.0010   -1.6475    0.0000 H       1  UNL1        0.1084
     56 H           4.2690   -1.6475    0.0000 H       1  UNL1        0.0647
     57 H           8.8546   -3.1599    0.0000 H       1  UNL1        0.0724
     58 H           9.2531   -3.8501    0.0000 H       1  UNL1        0.0724
     59 H          10.0021    1.0425    0.0000 H       1  UNL1        0.2100
     60 H          11.7341   -0.5775    0.0000 H       1  UNL1        0.2100
     61 H           3.8015   -1.2926    0.0000 H       1  UNL1        0.0584
     62 H           3.0044   -1.2926    0.0000 H       1  UNL1        0.0584
     63 H          11.7341   -1.9575    0.0000 H       1  UNL1        0.2100
     64 H           5.4641   -0.5775    0.0000 H       1  UNL1        0.0691
     65 H           4.5981   -5.0775    0.0000 H       1  UNL1        0.2100
     66 H           6.8671   -4.3875    0.0000 H       1  UNL1        0.2102
     67 H           3.4030   -4.3875    0.0000 H       1  UNL1        0.2100
     68 H           7.7466    3.4217    0.0000 H       1  UNL1        0.0693
     69 H           2.0000   -1.9575    0.0000 H       1  UNL1        0.2095
     70 H           4.5981    0.9225    0.0000 H       1  UNL1        0.2922
     71 H          10.8872   -5.8045    0.0000 H       1  UNL1        0.0342
     72 H          11.7341   -5.5775    0.0000 H       1  UNL1        0.0342
     73 H          11.5072   -4.7306    0.0000 H       1  UNL1        0.0342
     74 H          10.3808    1.6542    0.0000 H       1  UNL1        0.0626
     75 H           8.9872    4.0896    0.0000 H       1  UNL1        0.0626
     76 H          11.7868    2.4588    0.0000 H       1  UNL1        0.0654
     77 H          10.3933    4.8942    0.0000 H       1  UNL1        0.0654
     78 H          12.7468    5.2652    0.0000 H       1  UNL1        0.0660
     79 H          12.1291    5.8875    0.0000 H       1  UNL1        0.0660
     80 H          11.5068    5.2699    0.0000 H       1  UNL1        0.0660
@<TRIPOS>BOND
     1     1    17    1
     2     1    21    1
     3     2    26    1
     4     2    27    1
     5    26     3    1
     6     3    29    1
     7    18     4    1
     8     4    59    1
     9    19     5    1
    10     5    60    1
    11    20     6    1
    12     6    63    1
    13    23     7    1
    14     7    65    1
    15    24     8    1
    16     8    66    1
    17    25     9    1
    18     9    67    1
    19    10    28    1
    20    10    38    1
    21    11    30   ar
    22    11    36   ar
    23    12    31    1
    24    12    69    1
    25    13    34    1
    26    13    70    1
    27    14    35    2
    28    15    38    2
    29    16    45    1
    30    16    46    1
    31    17    18    1
    32    17    22    1
    33    17    47    1
    34    18    19    1
    35    18    48    1
    36    19    20    1
    37    19    49    1
    38    20    21    1
    39    20    50    1
    40    21    28    1
    41    21    51    1
    42    22    29   ar
    43    22    30   ar
    44    23    24    1
    45    23    25    1
    46    23    52    1
    47    24    26    1
    48    24    53    1
    49    25    27    1
    50    25    54    1
    51    26    55    1
    52    27    31    1
    53    27    56    1
    54    28    57    1
    55    28    58    1
    56    29    33   ar
    57    30    32   ar
    58    31    61    1
    59    31    62    1
    60    32    34   ar
    61    32    35   ar
    62    33    34   ar
    63    33    64    1
    64    35    37   ar
    65    36    37   ar
    66    36    39    1
    67    37    68    1
    68    38    40    1
    69    39    41   ar
    70    39    42   ar
    71    40    71    1
    72    40    72    1
    73    40    73    1
    74    41    43   ar
    75    41    74    1
    76    42    44   ar
    77    42    75    1
    78    43    45   ar
    79    43    76    1
    80    44    45   ar
    81    44    77    1
    82    46    78    1
    83    46    79    1
    84    46    80    1
