@<TRIPOS>MOLECULE
IMPHY000769
 38 41 0 0 0
SMALL
GASTEIGER

@<TRIPOS>ATOM
      1 O           5.5301   -1.9279    0.0000 O.3     1  UNL1       -0.4900
      2 O           9.9404   -0.2327    0.0000 O.3     1  UNL1       -0.4526
      3 O           9.9404    1.3768    0.0000 O.3     1  UNL1       -0.4525
      4 O           6.3961    1.5721    0.0000 O.3     1  UNL1       -0.4947
      5 O           5.5301    1.0721    0.0000 O.2     1  UNL1       -0.2910
      6 O           3.7817    1.1067    0.0000 O.3     1  UNL1       -0.5058
      7 O           2.0000   -1.9521    0.0000 O.3     1  UNL1       -0.5065
      8 C           6.3961   -0.4279    0.0000 C.3     1  UNL1        0.0849
      9 C           7.2622    0.0721    0.0000 C.ar    1  UNL1        0.0118
     10 C           6.3961   -1.4279    0.0000 C.3     1  UNL1        0.1036
     11 C           5.5301    0.0721    0.0000 C.2     1  UNL1        0.1809
     12 C           4.6641   -0.4279    0.0000 C.ar    1  UNL1        0.1012
     13 C           7.2622    1.0721    0.0000 C.ar    1  UNL1        0.1278
     14 C           4.6641   -1.4279    0.0000 C.ar    1  UNL1        0.1380
     15 C           8.1282   -0.4279    0.0000 C.ar    1  UNL1       -0.0087
     16 C           8.9942    0.0721    0.0000 C.ar    1  UNL1        0.1667
     17 C           8.9942    1.0721    0.0000 C.ar    1  UNL1        0.1697
     18 C           8.1282    1.5721    0.0000 C.ar    1  UNL1        0.0259
     19 C           3.7702    0.1067    0.0000 C.ar    1  UNL1        0.1343
     20 C           3.7702   -1.9626    0.0000 C.ar    1  UNL1        0.0225
     21 C           2.8641   -0.4071    0.0000 C.ar    1  UNL1        0.0222
     22 C           2.8641   -1.4487    0.0000 C.ar    1  UNL1        0.1238
     23 C          10.5241    0.5721    0.0000 C.3     1  UNL1        0.2332
     24 C           6.3961    2.5721    0.0000 C.3     1  UNL1        0.0788
     25 H           6.9331   -0.7379    0.0000 H       1  UNL1        0.0464
     26 H           6.6082   -2.0105    0.0000 H       1  UNL1        0.0707
     27 H           7.0067   -1.3203    0.0000 H       1  UNL1        0.0707
     28 H           8.1282   -1.0479    0.0000 H       1  UNL1        0.0659
     29 H           8.1282    2.1921    0.0000 H       1  UNL1        0.0692
     30 H           3.7773   -2.5826    0.0000 H       1  UNL1        0.0691
     31 H           2.3284   -0.0950    0.0000 H       1  UNL1        0.0691
     32 H          10.9849    0.1573    0.0000 H       1  UNL1        0.1166
     33 H          10.9849    0.9868    0.0000 H       1  UNL1        0.1166
     34 H           3.2484    1.4229    0.0000 H       1  UNL1        0.2922
     35 H           7.0162    2.5721    0.0000 H       1  UNL1        0.0660
     36 H           6.3961    3.1921    0.0000 H       1  UNL1        0.0660
     37 H           5.7762    2.5721    0.0000 H       1  UNL1        0.0660
     38 H           2.0024   -2.5721    0.0000 H       1  UNL1        0.2921
@<TRIPOS>BOND
     1     1    10    1
     2     1    14    1
     3     2    16    1
     4     2    23    1
     5     3    17    1
     6     3    23    1
     7     4    13    1
     8     4    24    1
     9     5    11    2
    10     6    19    1
    11     6    34    1
    12     7    22    1
    13     7    38    1
    14     8     9    1
    15     8    10    1
    16     8    11    1
    17     8    25    1
    18     9    13   ar
    19     9    15   ar
    20    10    26    1
    21    10    27    1
    22    11    12    1
    23    12    14   ar
    24    12    19   ar
    25    13    18   ar
    26    14    20   ar
    27    15    16   ar
    28    15    28    1
    29    16    17   ar
    30    17    18   ar
    31    18    29    1
    32    19    21   ar
    33    20    22   ar
    34    20    30    1
    35    21    22   ar
    36    21    31    1
    37    23    32    1
    38    23    33    1
    39    24    35    1
    40    24    36    1
    41    24    37    1
