@<TRIPOS>MOLECULE
IMPHY005166
 53 56 0 0 0
SMALL
GASTEIGER

@<TRIPOS>ATOM
      1 O           6.0010   -2.3080    0.0000 O.3     1  UNL1       -0.3391
      2 O           4.2690   -2.3080    0.0000 O.3     1  UNL1       -0.3405
      3 O           5.1963    0.2756    0.0000 O.3     1  UNL1       -0.4853
      4 O           6.0010   -4.3080    0.0000 O.3     1  UNL1       -0.3841
      5 O           4.2690   -5.3080    0.0000 O.3     1  UNL1       -0.3864
      6 O           2.5369   -4.3080    0.0000 O.3     1  UNL1       -0.3865
      7 O           2.5369   -1.3080    0.0000 O.3     1  UNL1       -0.3924
      8 O           4.9664    3.8478    0.0000 O.2     1  UNL1       -0.4220
      9 O           4.9769    5.6180    0.0000 O.2     1  UNL1       -0.2452
     10 C           6.0010   -1.3080    0.0000 C.3     1  UNL1        0.1039
     11 C           6.0010   -0.3080    0.0000 C.3     1  UNL1        0.1326
     12 C           5.1350   -2.8080    0.0000 C.3     1  UNL1        0.1887
     13 C           5.1350   -3.8080    0.0000 C.3     1  UNL1        0.1341
     14 C           4.2690   -4.3080    0.0000 C.3     1  UNL1        0.1141
     15 C           3.4030   -3.8080    0.0000 C.3     1  UNL1        0.1119
     16 C           3.4030   -2.8080    0.0000 C.3     1  UNL1        0.1130
     17 C           6.8058    0.2756    0.0000 C.3     1  UNL1        0.0157
     18 C           7.0010   -1.3080    0.0000 C.3     1  UNL1       -0.0325
     19 C           5.0010   -1.3080    0.0000 C.3     1  UNL1       -0.0325
     20 C           6.5010    1.2218    0.0000 C.ar    1  UNL1       -0.0013
     21 C           5.5010    1.2218    0.0000 C.ar    1  UNL1        0.1279
     22 C           2.5369   -2.3080    0.0000 C.3     1  UNL1        0.0730
     23 C           7.0010    2.0879    0.0000 C.ar    1  UNL1       -0.0443
     24 C           5.0010    2.0879    0.0000 C.ar    1  UNL1        0.0234
     25 C           6.5010    2.9539    0.0000 C.ar    1  UNL1        0.0181
     26 C           5.5010    2.9539    0.0000 C.ar    1  UNL1        0.1425
     27 C           7.0357    3.8478    0.0000 C.ar    1  UNL1       -0.0443
     28 C           6.5218    4.7539    0.0000 C.ar    1  UNL1        0.0236
     29 C           5.4802    4.7539    0.0000 C.ar    1  UNL1        0.3372
     30 H           5.2438   -0.6942    0.0000 H       1  UNL1        0.0765
     31 H           5.1350   -2.1880    0.0000 H       1  UNL1        0.0938
     32 H           5.1350   -4.4280    0.0000 H       1  UNL1        0.0671
     33 H           3.7320   -4.6180    0.0000 H       1  UNL1        0.0648
     34 H           2.8660   -3.4980    0.0000 H       1  UNL1        0.0647
     35 H           3.4030   -2.1880    0.0000 H       1  UNL1        0.0647
     36 H           7.1150   -0.2618    0.0000 H       1  UNL1        0.0351
     37 H           7.3727    0.5267    0.0000 H       1  UNL1        0.0351
     38 H           7.0010   -1.9280    0.0000 H       1  UNL1        0.0258
     39 H           7.6210   -1.3080    0.0000 H       1  UNL1        0.0258
     40 H           5.0010   -0.6880    0.0000 H       1  UNL1        0.0258
     41 H           4.3810   -1.3080    0.0000 H       1  UNL1        0.0258
     42 H           5.0010   -1.9280    0.0000 H       1  UNL1        0.0258
     43 H           7.0010   -0.6880    0.0000 H       1  UNL1        0.0258
     44 H           1.9264   -2.2003    0.0000 H       1  UNL1        0.0584
     45 H           2.3249   -2.8906    0.0000 H       1  UNL1        0.0584
     46 H           6.0010   -4.9280    0.0000 H       1  UNL1        0.2101
     47 H           7.6210    2.0879    0.0000 H       1  UNL1        0.0628
     48 H           3.7320   -5.6180    0.0000 H       1  UNL1        0.2100
     49 H           2.0000   -3.9980    0.0000 H       1  UNL1        0.2100
     50 H           4.3810    2.0879    0.0000 H       1  UNL1        0.0691
     51 H           2.0000   -0.9980    0.0000 H       1  UNL1        0.2095
     52 H           7.6557    3.8407    0.0000 H       1  UNL1        0.0627
     53 H           6.8339    5.2896    0.0000 H       1  UNL1        0.0689
@<TRIPOS>BOND
     1     1    10    1
     2    12     1    1
     3     2    12    1
     4     2    16    1
     5     3    11    1
     6     3    21    1
     7    13     4    1
     8     4    46    1
     9    14     5    1
    10     5    48    1
    11    15     6    1
    12     6    49    1
    13     7    22    1
    14     7    51    1
    15     8    26   ar
    16     8    29   ar
    17     9    29    2
    18    10    11    1
    19    10    18    1
    20    10    19    1
    21    11    17    1
    22    11    30    1
    23    12    13    1
    24    12    31    1
    25    13    14    1
    26    13    32    1
    27    14    15    1
    28    14    33    1
    29    15    16    1
    30    15    34    1
    31    16    22    1
    32    16    35    1
    33    17    20    1
    34    17    36    1
    35    17    37    1
    36    18    38    1
    37    18    39    1
    38    18    43    1
    39    19    40    1
    40    19    41    1
    41    19    42    1
    42    20    21   ar
    43    20    23   ar
    44    21    24   ar
    45    22    44    1
    46    22    45    1
    47    23    25   ar
    48    23    47    1
    49    24    26   ar
    50    24    50    1
    51    25    26   ar
    52    25    27   ar
    53    27    28   ar
    54    27    52    1
    55    28    29   ar
    56    28    53    1
