@<TRIPOS>MOLECULE
IMPHY006291
 33 34 0 0 0
SMALL
GASTEIGER

@<TRIPOS>ATOM
      1 O           6.3406   -1.9623    0.0000 O.3     1  UNL1       -0.3931
      2 O           2.0000   -0.4177    0.0000 O.3     1  UNL1       -0.4914
      3 O           2.0000    1.5823    0.0000 O.3     1  UNL1       -0.4914
      4 N           6.3981    0.0615    0.0000 N.3     1  UNL1       -0.3072
      5 CA          5.4920   -0.4524    0.0000 C.3     1  UNL1        0.0566
      6 C           4.5981    0.0823    0.0000 C.ar    1  UNL1       -0.0214
      7 C           4.5981    1.0823    0.0000 C.ar    1  UNL1       -0.0377
      8 C           5.4920    1.6169    0.0000 C.3     1  UNL1       -0.0147
      9 C           6.3981    1.1031    0.0000 C.3     1  UNL1        0.0005
     10 C           5.4804   -1.4523    0.0000 C.3     1  UNL1        0.0637
     11 C           3.7320   -0.4177    0.0000 C.ar    1  UNL1       -0.0113
     12 C           3.7320    1.5823    0.0000 C.ar    1  UNL1       -0.0128
     13 C           2.8660    0.0823    0.0000 C.ar    1  UNL1        0.1618
     14 C           2.8660    1.0823    0.0000 C.ar    1  UNL1        0.1618
     15 C           2.0000   -1.4177    0.0000 C.3     1  UNL1        0.0790
     16 C           2.0000    2.5823    0.0000 C.3     1  UNL1        0.0790
     17 HA          6.0259   -0.7676    0.0000 H       1  UNL1        0.0533
     18 H           5.8856    2.0960    0.0000 H       1  UNL1        0.0326
     19 H           5.0874    2.0867    0.0000 H       1  UNL1        0.0326
     20 H           7.0089    0.9970    0.0000 H       1  UNL1        0.0427
     21 H           6.6071    1.6868    0.0000 H       1  UNL1        0.0427
     22 H           6.9338   -0.2506    0.0000 H       1  UNL1        0.1226
     23 H1          4.8712   -1.3376    0.0000 H       1  UNL1        0.0576
     24 H2          5.2617   -2.0324    0.0000 H       1  UNL1        0.0576
     25 H           3.7320   -1.0377    0.0000 H       1  UNL1        0.0659
     26 H           3.7320    2.2023    0.0000 H       1  UNL1        0.0658
     27 H           6.3335   -2.5823    0.0000 H       1  UNL1        0.2095
     28 H           1.3800   -1.4177    0.0000 H       1  UNL1        0.0660
     29 H           2.0000   -2.0377    0.0000 H       1  UNL1        0.0660
     30 H           2.6200   -1.4177    0.0000 H       1  UNL1        0.0660
     31 H           2.6200    2.5823    0.0000 H       1  UNL1        0.0660
     32 H           2.0000    3.2023    0.0000 H       1  UNL1        0.0660
     33 H           1.3800    2.5823    0.0000 H       1  UNL1        0.0660
@<TRIPOS>BOND
     1     1    10    1
     2     1    27    1
     3     2    13    1
     4     2    15    1
     5     3    14    1
     6     3    16    1
     7     4     5    1
     8     4     9    1
     9     4    22    1
    10     5     6    1
    11     5    10    1
    12     5    17    1
    13     6     7   ar
    14     6    11   ar
    15     7     8    1
    16     7    12   ar
    17     8     9    1
    18     8    18    1
    19     8    19    1
    20     9    20    1
    21     9    21    1
    22    10    23    1
    23    10    24    1
    24    11    13   ar
    25    11    25    1
    26    12    14   ar
    27    12    26    1
    28    13    14   ar
    29    15    28    1
    30    15    29    1
    31    15    30    1
    32    16    31    1
    33    16    32    1
    34    16    33    1
