@<TRIPOS>MOLECULE
IMPHY017681
 41 40 0 0 0
SMALL
GASTEIGER

@<TRIPOS>ATOM
      1 O          10.6603   -0.2500    0.0000 O.3     1  UNL1       -0.4646
      2 O          11.5263    1.2500    0.0000 O.2     1  UNL1       -0.2512
      3 C           8.0622    0.2500    0.0000 C.3     1  UNL1       -0.0474
      4 C           7.1962   -0.2500    0.0000 C.3     1  UNL1       -0.0527
      5 C           8.9282   -0.2500    0.0000 C.3     1  UNL1       -0.0095
      6 C           6.3301    0.2500    0.0000 C.3     1  UNL1       -0.0530
      7 C           5.4641   -0.2500    0.0000 C.3     1  UNL1       -0.0531
      8 C           4.5981    0.2500    0.0000 C.3     1  UNL1       -0.0531
      9 C           3.7320   -0.2500    0.0000 C.3     1  UNL1       -0.0533
     10 C           9.7942    0.2500    0.0000 C.3     1  UNL1        0.0950
     11 C           8.9282   -1.2500    0.0000 C.3     1  UNL1       -0.0593
     12 C           2.8660    0.2500    0.0000 C.3     1  UNL1       -0.0559
     13 C           2.0000   -0.2500    0.0000 C.3     1  UNL1       -0.0653
     14 C          11.5263    0.2500    0.0000 C.2     1  UNL1        0.3040
     15 C          12.3923   -0.2500    0.0000 C.3     1  UNL1        0.0332
     16 H           8.4607    0.7249    0.0000 H       1  UNL1        0.0269
     17 H           7.6636    0.7249    0.0000 H       1  UNL1        0.0269
     18 H           6.7976   -0.7249    0.0000 H       1  UNL1        0.0265
     19 H           7.5947   -0.7249    0.0000 H       1  UNL1        0.0265
     20 H           9.4651   -0.5600    0.0000 H       1  UNL1        0.0331
     21 H           6.7287    0.7249    0.0000 H       1  UNL1        0.0265
     22 H           5.9316    0.7249    0.0000 H       1  UNL1        0.0265
     23 H           5.0656   -0.7249    0.0000 H       1  UNL1        0.0265
     24 H           5.8626   -0.7249    0.0000 H       1  UNL1        0.0265
     25 H           4.9966    0.7249    0.0000 H       1  UNL1        0.0265
     26 H           4.1996    0.7249    0.0000 H       1  UNL1        0.0265
     27 H           3.3335   -0.7249    0.0000 H       1  UNL1        0.0265
     28 H           4.1306   -0.7249    0.0000 H       1  UNL1        0.0265
     29 H          10.1928    0.7249    0.0000 H       1  UNL1        0.0700
     30 H           9.3957    0.7249    0.0000 H       1  UNL1        0.0700
     31 H           8.3082   -1.2500    0.0000 H       1  UNL1        0.0233
     32 H           8.9282   -1.8700    0.0000 H       1  UNL1        0.0233
     33 H           9.5482   -1.2500    0.0000 H       1  UNL1        0.0233
     34 H           3.2646    0.7249    0.0000 H       1  UNL1        0.0263
     35 H           2.4675    0.7249    0.0000 H       1  UNL1        0.0263
     36 H           1.6900    0.2869    0.0000 H       1  UNL1        0.0230
     37 H           1.4631   -0.5600    0.0000 H       1  UNL1        0.0230
     38 H           2.3100   -0.7869    0.0000 H       1  UNL1        0.0230
     39 H          12.0823   -0.7869    0.0000 H       1  UNL1        0.0342
     40 H          12.9292   -0.5600    0.0000 H       1  UNL1        0.0342
     41 H          12.7023    0.2869    0.0000 H       1  UNL1        0.0342
@<TRIPOS>BOND
     1     1    10    1
     2     1    14    1
     3     2    14    2
     4     3     4    1
     5     3     5    1
     6     3    16    1
     7     3    17    1
     8     4     6    1
     9     4    18    1
    10     4    19    1
    11     5    10    1
    12     5    11    1
    13     5    20    1
    14     6     7    1
    15     6    21    1
    16     6    22    1
    17     7     8    1
    18     7    23    1
    19     7    24    1
    20     8     9    1
    21     8    25    1
    22     8    26    1
    23     9    12    1
    24     9    27    1
    25     9    28    1
    26    10    29    1
    27    10    30    1
    28    11    31    1
    29    11    32    1
    30    11    33    1
    31    12    13    1
    32    12    34    1
    33    12    35    1
    34    13    36    1
    35    13    37    1
    36    13    38    1
    37    14    15    1
    38    15    39    1
    39    15    40    1
    40    15    41    1
