@<TRIPOS>MOLECULE
IMPHY011405
 46 49 0 0 0
SMALL
GASTEIGER

@<TRIPOS>ATOM
      1 O           6.9006    0.2693    0.0000 O.3     1  UNL1       -0.4732
      2 O           6.9006   -1.8001    0.0000 O.3     1  UNL1       -0.4754
      3 O           8.6445    1.2761    0.0000 O.2     1  UNL1       -0.4183
      4 O           5.1343   -2.7895    0.0000 O.3     1  UNL1       -0.3912
      5 O           8.6605   -2.7654    0.0000 O.3     1  UNL1       -0.4913
      6 O           4.2740    2.7621    0.0000 O.3     1  UNL1       -0.4914
      7 O           2.5381    1.7688    0.0000 O.3     1  UNL1       -0.5033
      8 O           9.5386    2.8038    0.0000 O.2     1  UNL1       -0.2452
      9 C           5.9945   -0.2446    0.0000 C.3     1  UNL1        0.1643
     10 C           5.9945   -1.2862    0.0000 C.3     1  UNL1        0.1641
     11 C           5.1304    0.2587    0.0000 C.ar    1  UNL1       -0.0000
     12 C           7.7945   -0.2654    0.0000 C.ar    1  UNL1        0.2096
     13 C           7.7945   -1.2654    0.0000 C.ar    1  UNL1        0.2080
     14 C           5.1304   -1.7896    0.0000 C.3     1  UNL1        0.0850
     15 C           8.6605    0.2346    0.0000 C.ar    1  UNL1        0.1844
     16 C           8.6605   -1.7654    0.0000 C.ar    1  UNL1        0.1660
     17 C           9.5266   -0.2654    0.0000 C.ar    1  UNL1        0.0250
     18 C           5.1343    1.2587    0.0000 C.ar    1  UNL1       -0.0095
     19 C           4.2625   -0.2379    0.0000 C.ar    1  UNL1       -0.0513
     20 C           9.5266   -1.2654    0.0000 C.ar    1  UNL1       -0.0054
     21 C           4.2702    1.7621    0.0000 C.ar    1  UNL1        0.1616
     22 C           3.3984    0.2654    0.0000 C.ar    1  UNL1       -0.0161
     23 C          10.4366    0.2414    0.0000 C.ar    1  UNL1       -0.0441
     24 C           3.4022    1.2654    0.0000 C.ar    1  UNL1        0.1585
     25 C          10.4446    1.2830    0.0000 C.ar    1  UNL1        0.0236
     26 C           9.5425    1.8039    0.0000 C.ar    1  UNL1        0.3373
     27 C           9.5266   -3.2654    0.0000 C.3     1  UNL1        0.0790
     28 C           3.4099    3.2654    0.0000 C.3     1  UNL1        0.0790
     29 H           5.9981    0.3754    0.0000 H       1  UNL1        0.0823
     30 H           5.9981   -1.9062    0.0000 H       1  UNL1        0.0798
     31 H           4.9161   -1.2078    0.0000 H       1  UNL1        0.0595
     32 H           4.5202   -1.8996    0.0000 H       1  UNL1        0.0595
     33 H           5.6724    1.5667    0.0000 H       1  UNL1        0.0659
     34 H           4.2601   -0.8579    0.0000 H       1  UNL1        0.0623
     35 H          10.0635   -1.5754    0.0000 H       1  UNL1        0.0662
     36 H           2.8602   -0.0425    0.0000 H       1  UNL1        0.0655
     37 H          10.9699   -0.0747    0.0000 H       1  UNL1        0.0627
     38 H           4.5985   -3.1016    0.0000 H       1  UNL1        0.2096
     39 H          10.9827    1.5910    0.0000 H       1  UNL1        0.0689
     40 H           9.2166   -3.8023    0.0000 H       1  UNL1        0.0660
     41 H          10.0635   -3.5754    0.0000 H       1  UNL1        0.0660
     42 H           9.8366   -2.7285    0.0000 H       1  UNL1        0.0660
     43 H           2.0000    1.4608    0.0000 H       1  UNL1        0.2923
     44 H           3.7220    3.8011    0.0000 H       1  UNL1        0.0660
     45 H           2.8742    3.5775    0.0000 H       1  UNL1        0.0660
     46 H           3.0979    2.7297    0.0000 H       1  UNL1        0.0660
@<TRIPOS>BOND
     1     1     9    1
     2     1    12    1
     3     2    10    1
     4     2    13    1
     5     3    15   ar
     6     3    26   ar
     7     4    14    1
     8     4    38    1
     9     5    16    1
    10     5    27    1
    11     6    21    1
    12     6    28    1
    13     7    24    1
    14     7    43    1
    15     8    26    2
    16     9    10    1
    17     9    11    1
    18     9    29    1
    19    10    14    1
    20    10    30    1
    21    11    18   ar
    22    11    19   ar
    23    12    13   ar
    24    12    15   ar
    25    13    16   ar
    26    14    31    1
    27    14    32    1
    28    15    17   ar
    29    16    20   ar
    30    17    20   ar
    31    17    23   ar
    32    18    21   ar
    33    18    33    1
    34    19    22   ar
    35    19    34    1
    36    20    35    1
    37    21    24   ar
    38    22    24   ar
    39    22    36    1
    40    23    25   ar
    41    23    37    1
    42    25    26   ar
    43    25    39    1
    44    27    40    1
    45    27    41    1
    46    27    42    1
    47    28    44    1
    48    28    45    1
    49    28    46    1
