@<TRIPOS>MOLECULE
IMPHY005949
 34 34 0 0 0
SMALL
GASTEIGER

@<TRIPOS>ATOM
      1 O           3.0000    1.0000    0.0000 O.2     1  UNL1       -0.2876
      2 C           3.0000   -1.0000    0.0000 C.3     1  UNL1       -0.0063
      3 C           3.0000   -2.0000    0.0000 C.3     1  UNL1       -0.0435
      4 C           3.8660   -2.5000    0.0000 C.3     1  UNL1       -0.0486
      5 C           3.8660   -0.5000    0.0000 C.2     1  UNL1        0.0039
      6 C           4.7320   -2.0000    0.0000 C.3     1  UNL1       -0.0313
      7 C           4.7320   -1.0000    0.0000 C.2     1  UNL1       -0.0653
      8 C           2.0000   -1.0000    0.0000 C.3     1  UNL1       -0.0557
      9 C           2.5000   -0.1340    0.0000 C.3     1  UNL1       -0.0557
     10 C           3.8660    0.5000    0.0000 C.2     1  UNL1        0.1823
     11 C           5.5981   -0.5000    0.0000 C.3     1  UNL1       -0.0431
     12 C           4.7320    1.0000    0.0000 C.2     1  UNL1       -0.0188
     13 C           4.7320    2.0000    0.0000 C.2     1  UNL1       -0.0835
     14 C           5.5981    2.5000    0.0000 C.3     1  UNL1       -0.0464
     15 H           2.3894   -1.8923    0.0000 H       1  UNL1        0.0274
     16 H           2.7880   -2.5826    0.0000 H       1  UNL1        0.0274
     17 H           3.4675   -2.9750    0.0000 H       1  UNL1        0.0269
     18 H           4.2646   -2.9750    0.0000 H       1  UNL1        0.0269
     19 H           4.9441   -2.5826    0.0000 H       1  UNL1        0.0310
     20 H           5.3426   -1.8923    0.0000 H       1  UNL1        0.0310
     21 H           2.0000   -0.3800    0.0000 H       1  UNL1        0.0238
     22 H           1.3800   -1.0000    0.0000 H       1  UNL1        0.0238
     23 H           2.0000   -1.6200    0.0000 H       1  UNL1        0.0238
     24 H           3.0369    0.1760    0.0000 H       1  UNL1        0.0238
     25 H           2.1900    0.4030    0.0000 H       1  UNL1        0.0238
     26 H           1.9631   -0.4440    0.0000 H       1  UNL1        0.0238
     27 H           5.9081   -1.0369    0.0000 H       1  UNL1        0.0275
     28 H           6.1350   -0.1900    0.0000 H       1  UNL1        0.0275
     29 H           5.2881    0.0369    0.0000 H       1  UNL1        0.0275
     30 H           5.2690    0.6900    0.0000 H       1  UNL1        0.0653
     31 H           4.1951    2.3100    0.0000 H       1  UNL1        0.0570
     32 H           5.9081    1.9631    0.0000 H       1  UNL1        0.0272
     33 H           6.1350    2.8100    0.0000 H       1  UNL1        0.0272
     34 H           5.2881    3.0369    0.0000 H       1  UNL1        0.0272
@<TRIPOS>BOND
     1     1    10    2
     2     2     3    1
     3     2     5    1
     4     2     8    1
     5     2     9    1
     6     3     4    1
     7     3    15    1
     8     3    16    1
     9     4     6    1
    10     4    17    1
    11     4    18    1
    12     5     7    2
    13     5    10    1
    14     6     7    1
    15     6    19    1
    16     6    20    1
    17     7    11    1
    18     8    21    1
    19     8    22    1
    20     8    23    1
    21     9    24    1
    22     9    25    1
    23     9    26    1
    24    10    12    1
    25    11    27    1
    26    11    28    1
    27    11    29    1
    28    12    13    2
    29    12    30    1
    30    13    14    1
    31    13    31    1
    32    14    32    1
    33    14    33    1
    34    14    34    1
