@<TRIPOS>MOLECULE
IMPHY002790
 132 135 0 0 0
SMALL
GASTEIGER

@<TRIPOS>ATOM
      1 O           6.0010   -2.5000    0.0000 O.3     1  UNL1       -0.3378
      2 O           6.0010   -0.5000    0.0000 O.3     1  UNL1       -0.3377
      3 O           4.2690   -0.5000    0.0000 O.3     1  UNL1       -0.3405
      4 O           5.1350   -4.0000    0.0000 O.3     1  UNL1       -0.3431
      5 O           6.0010   -6.5000    0.0000 O.3     1  UNL1       -0.3402
      6 O           6.8671    2.0000    0.0000 O.3     1  UNL1       -0.3431
      7 O           7.7331    0.5000    0.0000 O.3     1  UNL1       -0.3454
      8 O           4.2690   -3.5000    0.0000 O.3     1  UNL1       -0.3864
      9 O           4.2690   -6.5000    0.0000 O.3     1  UNL1       -0.3431
     10 O           2.5369   -2.5000    0.0000 O.3     1  UNL1       -0.3865
     11 O           7.7331   -5.5000    0.0000 O.3     1  UNL1       -0.3864
     12 O           7.7331   -3.5000    0.0000 O.3     1  UNL1       -0.3841
     13 O           4.2690    0.5000    0.0000 O.3     1  UNL1       -0.3864
     14 O           4.2690    2.5000    0.0000 O.3     1  UNL1       -0.3866
     15 O           6.0010   -8.5000    0.0000 O.3     1  UNL1       -0.3841
     16 O           2.5369    0.5000    0.0000 O.3     1  UNL1       -0.3924
     17 O           4.2690   -9.5000    0.0000 O.3     1  UNL1       -0.3864
     18 O           2.5369   -8.5000    0.0000 O.3     1  UNL1       -0.3866
     19 O          12.9292    9.5000    0.0000 O.3     1  UNL1       -0.4806
     20 O          13.7953    8.0000    0.0000 O.2     1  UNL1       -0.2510
     21 C           5.1350   -2.0000    0.0000 C.3     1  UNL1        0.1406
     22 C           5.1350   -1.0000    0.0000 C.3     1  UNL1        0.1889
     23 C           4.2690   -2.5000    0.0000 C.3     1  UNL1        0.1144
     24 C           6.0010    0.5000    0.0000 C.3     1  UNL1        0.1406
     25 C           6.0010   -5.5000    0.0000 C.3     1  UNL1        0.1160
     26 C           6.0010   -3.5000    0.0000 C.3     1  UNL1        0.1884
     27 C           3.4030   -2.0000    0.0000 C.3     1  UNL1        0.1119
     28 C           6.8671   -5.0000    0.0000 C.3     1  UNL1        0.1143
     29 C           6.8671   -4.0000    0.0000 C.3     1  UNL1        0.1341
     30 C           3.4030   -1.0000    0.0000 C.3     1  UNL1        0.1130
     31 C           5.1350    1.0000    0.0000 C.3     1  UNL1        0.1143
     32 C           5.1350   -5.0000    0.0000 C.3     1  UNL1        0.0877
     33 C           6.8671    1.0000    0.0000 C.3     1  UNL1        0.1885
     34 C           5.1350    2.0000    0.0000 C.3     1  UNL1        0.1095
     35 C           6.0010    2.5000    0.0000 C.3     1  UNL1        0.0873
     36 C           5.1350   -7.0000    0.0000 C.3     1  UNL1        0.1883
     37 C           5.1350   -8.0000    0.0000 C.3     1  UNL1        0.1341
     38 C           2.5369   -0.5000    0.0000 C.3     1  UNL1        0.0730
     39 C           4.2690   -8.5000    0.0000 C.3     1  UNL1        0.1140
     40 C           8.5991    1.0000    0.0000 C.3     1  UNL1        0.0618
     41 C           4.2690   -5.5000    0.0000 C.3     1  UNL1       -0.0361
     42 C           3.4030   -8.0000    0.0000 C.3     1  UNL1        0.1095
     43 C           3.4030   -7.0000    0.0000 C.3     1  UNL1        0.0873
     44 C           6.0010    3.5000    0.0000 C.3     1  UNL1       -0.0361
     45 C           8.5991    2.0000    0.0000 C.3     1  UNL1       -0.0265
     46 C           9.4651    0.5000    0.0000 C.3     1  UNL1       -0.0265
     47 C           9.4651    2.5000    0.0000 C.3     1  UNL1       -0.0507
     48 C          10.3312    1.0000    0.0000 C.3     1  UNL1       -0.0507
     49 C           2.5369   -6.5000    0.0000 C.3     1  UNL1       -0.0361
     50 C           9.4651    3.5000    0.0000 C.3     1  UNL1       -0.0530
     51 C          11.1972    0.5000    0.0000 C.3     1  UNL1       -0.0532
     52 C          10.3312    4.0000    0.0000 C.3     1  UNL1       -0.0531
     53 C          12.0632    1.0000    0.0000 C.3     1  UNL1       -0.0559
     54 C          10.3312    5.0000    0.0000 C.3     1  UNL1       -0.0531
     55 C          11.1972    5.5000    0.0000 C.3     1  UNL1       -0.0530
     56 C          12.9292    0.5000    0.0000 C.3     1  UNL1       -0.0653
     57 C          11.1972    6.5000    0.0000 C.3     1  UNL1       -0.0526
     58 C          12.0632    7.0000    0.0000 C.3     1  UNL1       -0.0430
     59 C          12.0632    8.0000    0.0000 C.3     1  UNL1        0.0448
     60 C          12.9292    8.5000    0.0000 C.2     1  UNL1        0.3047
     61 H           5.1350   -2.6200    0.0000 H       1  UNL1        0.0675
     62 H           5.6720   -1.3100    0.0000 H       1  UNL1        0.0938
     63 H           3.7320   -2.8100    0.0000 H       1  UNL1        0.0648
     64 H           6.5380    0.1900    0.0000 H       1  UNL1        0.0675
     65 H           6.5380   -5.8100    0.0000 H       1  UNL1        0.0650
     66 H           6.5380   -3.1900    0.0000 H       1  UNL1        0.0938
     67 H           2.8660   -1.6900    0.0000 H       1  UNL1        0.0647
     68 H           7.4040   -4.6900    0.0000 H       1  UNL1        0.0648
     69 H           7.4040   -4.3100    0.0000 H       1  UNL1        0.0671
     70 H           3.4030   -0.3800    0.0000 H       1  UNL1        0.0647
     71 H           5.1350    0.3800    0.0000 H       1  UNL1        0.0648
     72 H           4.5981   -4.6900    0.0000 H       1  UNL1        0.0621
     73 H           7.4040    1.3100    0.0000 H       1  UNL1        0.0938
     74 H           4.5981    1.6900    0.0000 H       1  UNL1        0.0646
     75 H           6.5380    2.8100    0.0000 H       1  UNL1        0.0621
     76 H           5.1350   -6.3800    0.0000 H       1  UNL1        0.0938
     77 H           5.1350   -8.6200    0.0000 H       1  UNL1        0.0671
     78 H           1.9264   -0.3923    0.0000 H       1  UNL1        0.0584
     79 H           2.3249   -1.0826    0.0000 H       1  UNL1        0.0584
     80 H           3.7320   -8.8100    0.0000 H       1  UNL1        0.0648
     81 H           8.0622    1.3100    0.0000 H       1  UNL1        0.0597
     82 H           3.9590   -4.9631    0.0000 H       1  UNL1        0.0255
     83 H           3.7320   -5.8100    0.0000 H       1  UNL1        0.0255
     84 H           4.5790   -6.0369    0.0000 H       1  UNL1        0.0255
     85 H           2.8660   -7.6900    0.0000 H       1  UNL1        0.0646
     86 H           3.4030   -6.3800    0.0000 H       1  UNL1        0.0621
     87 H           3.7320   -3.8100    0.0000 H       1  UNL1        0.2100
     88 H           6.6210    3.5000    0.0000 H       1  UNL1        0.0255
     89 H           6.0010    4.1200    0.0000 H       1  UNL1        0.0255
     90 H           5.3810    3.5000    0.0000 H       1  UNL1        0.0255
     91 H           2.0000   -2.1900    0.0000 H       1  UNL1        0.2100
     92 H           8.3871    2.5826    0.0000 H       1  UNL1        0.0290
     93 H           7.9885    1.8923    0.0000 H       1  UNL1        0.0290
     94 H           7.7331   -6.1200    0.0000 H       1  UNL1        0.2100
     95 H           8.2700   -3.8100    0.0000 H       1  UNL1        0.2101
     96 H           9.0666    0.0251    0.0000 H       1  UNL1        0.0290
     97 H           9.8637    0.0251    0.0000 H       1  UNL1        0.0290
     98 H           3.7320    0.8100    0.0000 H       1  UNL1        0.2100
     99 H           4.2690    3.1200    0.0000 H       1  UNL1        0.2100
    100 H           9.6772    1.9174    0.0000 H       1  UNL1        0.0266
    101 H          10.0757    2.6077    0.0000 H       1  UNL1        0.0266
    102 H          10.7297    1.4750    0.0000 H       1  UNL1        0.0266
    103 H           9.9326    1.4750    0.0000 H       1  UNL1        0.0266
    104 H           2.8469   -5.9631    0.0000 H       1  UNL1        0.0255
    105 H           2.0000   -6.1900    0.0000 H       1  UNL1        0.0255
    106 H           2.2269   -7.0369    0.0000 H       1  UNL1        0.0255
    107 H           6.0010   -9.1200    0.0000 H       1  UNL1        0.2101
    108 H           9.2531    4.0826    0.0000 H       1  UNL1        0.0265
    109 H           8.8546    3.3923    0.0000 H       1  UNL1        0.0265
    110 H           2.0000    0.8100    0.0000 H       1  UNL1        0.2095
    111 H           3.7320   -9.8100    0.0000 H       1  UNL1        0.2100
    112 H           2.0000   -8.1900    0.0000 H       1  UNL1        0.2100
    113 H          10.7987    0.0251    0.0000 H       1  UNL1        0.0265
    114 H          11.5957    0.0251    0.0000 H       1  UNL1        0.0265
    115 H          10.5432    3.4174    0.0000 H       1  UNL1        0.0265
    116 H          10.9417    4.1077    0.0000 H       1  UNL1        0.0265
    117 H          12.4617    1.4750    0.0000 H       1  UNL1        0.0263
    118 H          11.6647    1.4750    0.0000 H       1  UNL1        0.0263
    119 H          10.1191    5.5826    0.0000 H       1  UNL1        0.0265
    120 H           9.7206    4.8923    0.0000 H       1  UNL1        0.0265
    121 H          11.4092    4.9174    0.0000 H       1  UNL1        0.0265
    122 H          11.8078    5.6077    0.0000 H       1  UNL1        0.0265
    123 H          12.6192   -0.0369    0.0000 H       1  UNL1        0.0230
    124 H          13.4662    0.1900    0.0000 H       1  UNL1        0.0230
    125 H          13.2392    1.0369    0.0000 H       1  UNL1        0.0230
    126 H          10.9851    7.0826    0.0000 H       1  UNL1        0.0265
    127 H          10.5866    6.3923    0.0000 H       1  UNL1        0.0265
    128 H          12.2753    6.4174    0.0000 H       1  UNL1        0.0270
    129 H          12.6738    7.1077    0.0000 H       1  UNL1        0.0270
    130 H          11.8512    8.5826    0.0000 H       1  UNL1        0.0377
    131 H          11.4526    7.8923    0.0000 H       1  UNL1        0.0377
    132 H          13.4662    9.8100    0.0000 H       1  UNL1        0.2951
@<TRIPOS>BOND
     1    21     1    1
     2    26     1    1
     3    22     2    1
     4    24     2    1
     5     3    22    1
     6     3    30    1
     7     4    26    1
     8     4    32    1
     9    25     5    1
    10    36     5    1
    11     6    33    1
    12     6    35    1
    13    33     7    1
    14    40     7    1
    15    23     8    1
    16     8    87    1
    17     9    36    1
    18     9    43    1
    19    27    10    1
    20    10    91    1
    21    28    11    1
    22    11    94    1
    23    29    12    1
    24    12    95    1
    25    31    13    1
    26    13    98    1
    27    34    14    1
    28    14    99    1
    29    37    15    1
    30    15   107    1
    31    16    38    1
    32    16   110    1
    33    39    17    1
    34    17   111    1
    35    42    18    1
    36    18   112    1
    37    19    60    1
    38    19   132    1
    39    20    60    2
    40    21    22    1
    41    21    23    1
    42    21    61    1
    43    22    62    1
    44    23    27    1
    45    23    63    1
    46    24    31    1
    47    24    33    1
    48    24    64    1
    49    25    28    1
    50    25    32    1
    51    25    65    1
    52    26    29    1
    53    26    66    1
    54    27    30    1
    55    27    67    1
    56    28    29    1
    57    28    68    1
    58    29    69    1
    59    30    38    1
    60    30    70    1
    61    31    34    1
    62    31    71    1
    63    32    41    1
    64    32    72    1
    65    33    73    1
    66    34    35    1
    67    34    74    1
    68    35    44    1
    69    35    75    1
    70    36    37    1
    71    36    76    1
    72    37    39    1
    73    37    77    1
    74    38    78    1
    75    38    79    1
    76    39    42    1
    77    39    80    1
    78    40    45    1
    79    40    46    1
    80    40    81    1
    81    41    82    1
    82    41    83    1
    83    41    84    1
    84    42    43    1
    85    42    85    1
    86    43    49    1
    87    43    86    1
    88    44    88    1
    89    44    89    1
    90    44    90    1
    91    45    47    1
    92    45    92    1
    93    45    93    1
    94    46    48    1
    95    46    96    1
    96    46    97    1
    97    47    50    1
    98    47   100    1
    99    47   101    1
   100    48    51    1
   101    48   102    1
   102    48   103    1
   103    49   104    1
   104    49   105    1
   105    49   106    1
   106    50    52    1
   107    50   108    1
   108    50   109    1
   109    51    53    1
   110    51   113    1
   111    51   114    1
   112    52    54    1
   113    52   115    1
   114    52   116    1
   115    53    56    1
   116    53   117    1
   117    53   118    1
   118    54    55    1
   119    54   119    1
   120    54   120    1
   121    55    57    1
   122    55   121    1
   123    55   122    1
   124    56   123    1
   125    56   124    1
   126    56   125    1
   127    57    58    1
   128    57   126    1
   129    57   127    1
   130    58    59    1
   131    58   128    1
   132    58   129    1
   133    59    60    1
   134    59   130    1
   135    59   131    1
