@<TRIPOS>MOLECULE
IMPHY000786
 99 106 0 0 0
SMALL
GASTEIGER

@<TRIPOS>ATOM
      1 O           6.3113    0.8554    0.0000 O.3     1  UNL1       -0.4800
      2 O           8.8049   -2.2370    0.0000 O.3     1  UNL1       -0.4800
      3 O           8.0434    2.8554    0.0000 O.3     1  UNL1       -0.4534
      4 O           6.4934   -3.5240    0.0000 O.3     1  UNL1       -0.4534
      5 O           9.2515   -1.5843    0.0000 O.3     1  UNL1       -0.5028
      6 O           4.5629    3.8900    0.0000 O.3     1  UNL1       -0.5063
      7 O           9.4100   -5.6866    0.0000 O.3     1  UNL1       -0.5063
      8 O          10.6414    1.3554    0.0000 O.3     1  UNL1       -0.5032
      9 O          10.6414   -0.6446    0.0000 O.3     1  UNL1       -0.5009
     10 O           4.5792   -2.1446    0.0000 O.3     1  UNL1       -0.5033
     11 O           4.5792   -0.1446    0.0000 O.3     1  UNL1       -0.5033
     12 O           2.7812    0.8312    0.0000 O.3     1  UNL1       -0.5065
     13 O          12.1304   -3.4217    0.0000 O.3     1  UNL1       -0.5065
     14 O           7.1773    4.3554    0.0000 O.2     1  UNL1       -0.2449
     15 O           6.7940   -5.2298    0.0000 O.2     1  UNL1       -0.2449
     16 O          11.5075    3.8554    0.0000 O.3     1  UNL1       -0.5032
     17 O           9.7754    6.8554    0.0000 O.3     1  UNL1       -0.5032
     18 O           3.4977   -6.6904    0.0000 O.3     1  UNL1       -0.5032
     19 O           2.8961   -3.2789    0.0000 O.3     1  UNL1       -0.5032
     20 O          11.5075    5.8554    0.0000 O.3     1  UNL1       -0.5009
     21 O           2.2120   -5.1583    0.0000 O.3     1  UNL1       -0.5009
     22 C           7.1773    1.3554    0.0000 C.3     1  UNL1        0.1629
     23 C           7.8201   -2.4107    0.0000 C.3     1  UNL1        0.1628
     24 C           7.1773    2.3554    0.0000 C.3     1  UNL1        0.1483
     25 C           7.4781   -3.3504    0.0000 C.3     1  UNL1        0.1483
     26 C           8.0434    0.8554    0.0000 C.ar    1  UNL1        0.0111
     27 C           7.1773   -1.6446    0.0000 C.ar    1  UNL1        0.0077
     28 C           6.3113    2.8554    0.0000 C.3     1  UNL1        0.0204
     29 C           8.1209   -4.1164    0.0000 C.3     1  UNL1        0.0204
     30 C           8.0434   -0.1446    0.0000 C.ar    1  UNL1        0.0347
     31 C           7.1773   -0.6446    0.0000 C.ar    1  UNL1       -0.0034
     32 C           5.4453    2.3554    0.0000 C.ar    1  UNL1        0.0395
     33 C           9.1057   -3.9428    0.0000 C.ar    1  UNL1        0.0395
     34 C           5.4453    1.3554    0.0000 C.ar    1  UNL1        0.1318
     35 C           9.4477   -3.0031    0.0000 C.ar    1  UNL1        0.1318
     36 C           8.9094    1.3554    0.0000 C.ar    1  UNL1       -0.0089
     37 C           6.3113   -2.1446    0.0000 C.ar    1  UNL1       -0.0092
     38 C           8.9094   -0.6446    0.0000 C.ar    1  UNL1        0.1702
     39 C           6.3113   -0.1446    0.0000 C.ar    1  UNL1       -0.0083
     40 C           4.5513    2.8900    0.0000 C.ar    1  UNL1        0.1271
     41 C           9.7628   -4.7509    0.0000 C.ar    1  UNL1        0.1271
     42 C           9.7754    0.8554    0.0000 C.ar    1  UNL1        0.1624
     43 C           9.7754   -0.1446    0.0000 C.ar    1  UNL1        0.2012
     44 C           5.4453   -1.6446    0.0000 C.ar    1  UNL1        0.1586
     45 C           4.5513    0.8207    0.0000 C.ar    1  UNL1        0.0221
     46 C           5.4453   -0.6446    0.0000 C.ar    1  UNL1        0.1588
     47 C          10.4706   -2.8064    0.0000 C.ar    1  UNL1        0.0221
     48 C           3.6453    2.3762    0.0000 C.ar    1  UNL1        0.0218
     49 C          10.7900   -4.5780    0.0000 C.ar    1  UNL1        0.0218
     50 C           3.6453    1.3346    0.0000 C.ar    1  UNL1        0.1238
     51 C          11.1463   -3.5992    0.0000 C.ar    1  UNL1        0.1238
     52 C           8.0434    3.8554    0.0000 C.2     1  UNL1        0.3398
     53 C           6.1514   -4.4637    0.0000 C.2     1  UNL1        0.3398
     54 C           8.9094    4.3554    0.0000 C.ar    1  UNL1        0.0661
     55 C           5.1665   -4.6374    0.0000 C.ar    1  UNL1        0.0661
     56 C           8.9094    5.3554    0.0000 C.ar    1  UNL1       -0.0023
     57 C           9.7754    3.8554    0.0000 C.ar    1  UNL1       -0.0023
     58 C           4.5237   -3.8713    0.0000 C.ar    1  UNL1       -0.0023
     59 C           4.8245   -5.5771    0.0000 C.ar    1  UNL1       -0.0023
     60 C          10.6414    4.3554    0.0000 C.ar    1  UNL1        0.1628
     61 C           9.7754    5.8554    0.0000 C.ar    1  UNL1        0.1628
     62 C           3.8397   -5.7507    0.0000 C.ar    1  UNL1        0.1628
     63 C           3.5389   -4.0450    0.0000 C.ar    1  UNL1        0.1628
     64 C          10.6414    5.3554    0.0000 C.ar    1  UNL1        0.2006
     65 C           3.1969   -4.9847    0.0000 C.ar    1  UNL1        0.2006
     66 H           7.1773    0.5054    0.0000 H       1  UNL1        0.0822
     67 H           6.9830   -2.5583    0.0000 H       1  UNL1        0.0822
     68 H           7.1773    2.9754    0.0000 H       1  UNL1        0.0778
     69 H           8.3353   -3.8253    0.0000 H       1  UNL1        0.0778
     70 H           6.7098    3.3303    0.0000 H       1  UNL1        0.0353
     71 H           5.9128    3.3303    0.0000 H       1  UNL1        0.0353
     72 H           7.5839   -4.4264    0.0000 H       1  UNL1        0.0353
     73 H           8.3329   -4.6990    0.0000 H       1  UNL1        0.0353
     74 H           8.9094    1.9754    0.0000 H       1  UNL1        0.0659
     75 H           6.3113   -2.7646    0.0000 H       1  UNL1        0.0659
     76 H           6.3113    0.4754    0.0000 H       1  UNL1        0.0661
     77 H           4.5585    0.2008    0.0000 H       1  UNL1        0.0691
     78 H          10.6759   -2.2214    0.0000 H       1  UNL1        0.0691
     79 H           3.1095    2.6883    0.0000 H       1  UNL1        0.0691
     80 H          11.1867   -5.0544    0.0000 H       1  UNL1        0.0691
     81 H           9.8620   -1.6920    0.0000 H       1  UNL1        0.2923
     82 H           4.0296    4.2062    0.0000 H       1  UNL1        0.2921
     83 H           9.8030   -6.1661    0.0000 H       1  UNL1        0.2921
     84 H          10.6414    1.9754    0.0000 H       1  UNL1        0.2923
     85 H          11.1784   -0.3346    0.0000 H       1  UNL1        0.2924
     86 H           4.5792   -2.7646    0.0000 H       1  UNL1        0.2923
     87 H           4.0423   -0.4546    0.0000 H       1  UNL1        0.2923
     88 H           2.2431    1.1392    0.0000 H       1  UNL1        0.2921
     89 H          12.5308   -3.8951    0.0000 H       1  UNL1        0.2921
     90 H           8.3724    5.6654    0.0000 H       1  UNL1        0.0663
     91 H           9.7754    3.2354    0.0000 H       1  UNL1        0.0663
     92 H           4.7357   -3.2887    0.0000 H       1  UNL1        0.0663
     93 H           5.2230   -6.0520    0.0000 H       1  UNL1        0.0663
     94 H          12.0444    4.1654    0.0000 H       1  UNL1        0.2923
     95 H           9.2385    7.1654    0.0000 H       1  UNL1        0.2923
     96 H           3.8962   -7.1654    0.0000 H       1  UNL1        0.2923
     97 H           2.2855   -3.3866    0.0000 H       1  UNL1        0.2923
     98 H          11.5075    6.4754    0.0000 H       1  UNL1        0.2924
     99 H           2.0000   -5.7409    0.0000 H       1  UNL1        0.2924
@<TRIPOS>BOND
     1     1    22    1
     2     1    34    1
     3     2    23    1
     4     2    35    1
     5    24     3    1
     6     3    52    1
     7    25     4    1
     8     4    53    1
     9     5    38    1
    10     5    81    1
    11     6    40    1
    12     6    82    1
    13     7    41    1
    14     7    83    1
    15     8    42    1
    16     8    84    1
    17     9    43    1
    18     9    85    1
    19    10    44    1
    20    10    86    1
    21    11    46    1
    22    11    87    1
    23    12    50    1
    24    12    88    1
    25    13    51    1
    26    13    89    1
    27    14    52    2
    28    15    53    2
    29    16    60    1
    30    16    94    1
    31    17    61    1
    32    17    95    1
    33    18    62    1
    34    18    96    1
    35    19    63    1
    36    19    97    1
    37    20    64    1
    38    20    98    1
    39    21    65    1
    40    21    99    1
    41    22    24    1
    42    22    26    1
    43    22    66    1
    44    23    25    1
    45    23    27    1
    46    23    67    1
    47    24    28    1
    48    24    68    1
    49    25    29    1
    50    25    69    1
    51    26    30   ar
    52    26    36   ar
    53    27    31   ar
    54    27    37   ar
    55    28    32    1
    56    28    70    1
    57    28    71    1
    58    29    33    1
    59    29    72    1
    60    29    73    1
    61    30    31    1
    62    30    38   ar
    63    31    39   ar
    64    32    34   ar
    65    32    40   ar
    66    33    35   ar
    67    33    41   ar
    68    34    45   ar
    69    35    47   ar
    70    36    42   ar
    71    36    74    1
    72    37    44   ar
    73    37    75    1
    74    38    43   ar
    75    39    46   ar
    76    39    76    1
    77    40    48   ar
    78    41    49   ar
    79    42    43   ar
    80    44    46   ar
    81    45    50   ar
    82    45    77    1
    83    47    51   ar
    84    47    78    1
    85    48    50   ar
    86    48    79    1
    87    49    51   ar
    88    49    80    1
    89    52    54    1
    90    53    55    1
    91    54    56   ar
    92    54    57   ar
    93    55    58   ar
    94    55    59   ar
    95    56    61   ar
    96    56    90    1
    97    57    60   ar
    98    57    91    1
    99    58    63   ar
   100    58    92    1
   101    59    62   ar
   102    59    93    1
   103    60    64   ar
   104    61    64   ar
   105    62    65   ar
   106    63    65   ar
