@<TRIPOS>MOLECULE
IMPHY014784
 100 103 0 0 0
SMALL
GASTEIGER

@<TRIPOS>ATOM
      1 O          16.2983   -4.7701    0.0000 O.3     1  UNL1       -0.3565
      2 O          19.7629   -5.7701    0.0000 O.3     1  UNL1       -0.3917
      3 O           6.0812    3.7194    0.0000 O.3     1  UNL1       -0.3577
      4 O           2.5369    3.5241    0.0000 O.3     1  UNL1       -0.3917
      5 C          17.1649   -4.2701    0.0000 C.3     1  UNL1        0.1224
      6 C          17.1649   -5.2701    0.0000 C.3     1  UNL1        0.1032
      7 C          18.0309   -3.7701    0.0000 C.3     1  UNL1        0.0029
      8 C          18.0309   -5.7701    0.0000 C.3     1  UNL1        0.0052
      9 C          18.8969   -4.2701    0.0000 C.3     1  UNL1       -0.0186
     10 C          18.8969   -5.2701    0.0000 C.3     1  UNL1        0.0585
     11 C          17.1649   -6.2701    0.0000 C.3     1  UNL1       -0.0326
     12 C          17.1648   -3.2701    0.0000 C.2     1  UNL1       -0.0491
     13 C          18.8969   -3.2701    0.0000 C.3     1  UNL1       -0.0567
     14 C          18.3729   -2.8304    0.0000 C.3     1  UNL1       -0.0567
     15 C          16.6648   -2.4041    0.0000 C.2     1  UNL1       -0.0600
     16 C          17.1648   -1.5381    0.0000 C.2     1  UNL1       -0.0507
     17 C           5.1350    4.0241    0.0000 C.3     1  UNL1        0.0918
     18 C           4.2690    5.5241    0.0000 C.3     1  UNL1       -0.0088
     19 C           5.1350    5.0241    0.0000 C.2     1  UNL1       -0.0338
     20 C           4.2690    3.5241    0.0000 C.3     1  UNL1        0.0061
     21 C           3.4030    5.0241    0.0000 C.3     1  UNL1       -0.0178
     22 C           3.4030    4.0241    0.0000 C.3     1  UNL1        0.0589
     23 C          18.1648   -1.5381    0.0000 C.3     1  UNL1       -0.0397
     24 C          16.6648   -0.6721    0.0000 C.2     1  UNL1       -0.0588
     25 C           6.0812    5.3288    0.0000 C.2     1  UNL1       -0.0491
     26 C           6.6648    4.5241    0.0000 C.3     1  UNL1        0.0994
     27 C           5.1350    3.0241    0.0000 C.3     1  UNL1       -0.0318
     28 C           3.7690    6.3901    0.0000 C.3     1  UNL1       -0.0559
     29 C           4.7690    6.3901    0.0000 C.3     1  UNL1       -0.0559
     30 C           7.6648    4.5241    0.0000 C.2     1  UNL1       -0.0404
     31 C          15.6648   -0.6721    0.0000 C.2     1  UNL1       -0.0613
     32 C           8.1648    5.3901    0.0000 C.3     1  UNL1       -0.0408
     33 C           8.1648    3.6581    0.0000 C.2     1  UNL1       -0.0600
     34 C          15.1648    0.1940    0.0000 C.2     1  UNL1       -0.0588
     35 C           9.1648    3.6581    0.0000 C.2     1  UNL1       -0.0615
     36 C          14.1648    0.1940    0.0000 C.2     1  UNL1       -0.0504
     37 C           9.6648    2.7920    0.0000 C.2     1  UNL1       -0.0588
     38 C          13.6648   -0.6721    0.0000 C.3     1  UNL1       -0.0397
     39 C          13.6648    1.0600    0.0000 C.2     1  UNL1       -0.0588
     40 C          10.6648    2.7920    0.0000 C.2     1  UNL1       -0.0504
     41 C          12.6648    1.0600    0.0000 C.2     1  UNL1       -0.0615
     42 C          11.1648    1.9260    0.0000 C.2     1  UNL1       -0.0588
     43 C          11.1648    3.6581    0.0000 C.3     1  UNL1       -0.0397
     44 C          12.1648    1.9260    0.0000 C.2     1  UNL1       -0.0615
     45 H          17.6324   -6.2451    0.0000 H       1  UNL1        0.0319
     46 H          18.4295   -6.2450    0.0000 H       1  UNL1        0.0319
     47 H          19.5075   -4.3778    0.0000 H       1  UNL1        0.0296
     48 H          19.1089   -3.6875    0.0000 H       1  UNL1        0.0296
     49 H          19.4338   -4.9601    0.0000 H       1  UNL1        0.0594
     50 H          16.5449   -6.2701    0.0000 H       1  UNL1        0.0258
     51 H          17.1649   -6.8901    0.0000 H       1  UNL1        0.0258
     52 H          17.7849   -6.2701    0.0000 H       1  UNL1        0.0258
     53 H          17.7474   -3.0581    0.0000 H       1  UNL1        0.0602
     54 H          19.2069   -3.8071    0.0000 H       1  UNL1        0.0236
     55 H          19.4338   -2.9601    0.0000 H       1  UNL1        0.0236
     56 H          18.5869   -2.7332    0.0000 H       1  UNL1        0.0236
     57 H          18.9555   -3.0425    0.0000 H       1  UNL1        0.0236
     58 H          18.5849   -2.2478    0.0000 H       1  UNL1        0.0236
     59 H          17.7903   -2.6184    0.0000 H       1  UNL1        0.0236
     60 H          19.7629   -6.3901    0.0000 H       1  UNL1        0.2098
     61 H          16.0448   -2.4041    0.0000 H       1  UNL1        0.0618
     62 H           3.8705    3.0492    0.0000 H       1  UNL1        0.0321
     63 H           4.6675    3.0492    0.0000 H       1  UNL1        0.0321
     64 H           3.1909    5.6067    0.0000 H       1  UNL1        0.0298
     65 H           2.7924    4.9164    0.0000 H       1  UNL1        0.0298
     66 H           3.4030    3.4041    0.0000 H       1  UNL1        0.0594
     67 H          18.1648   -2.1581    0.0000 H       1  UNL1        0.0278
     68 H          18.7848   -1.5381    0.0000 H       1  UNL1        0.0278
     69 H          18.1648   -0.9181    0.0000 H       1  UNL1        0.0278
     70 H          16.9748   -0.1351    0.0000 H       1  UNL1        0.0620
     71 H           6.2738    5.9182    0.0000 H       1  UNL1        0.0601
     72 H           6.9466    3.9718    0.0000 H       1  UNL1        0.0688
     73 H           4.5150    3.0241    0.0000 H       1  UNL1        0.0261
     74 H           5.1350    2.4041    0.0000 H       1  UNL1        0.0261
     75 H           5.7550    3.0241    0.0000 H       1  UNL1        0.0261
     76 H           4.3059    6.7001    0.0000 H       1  UNL1        0.0238
     77 H           3.4590    6.9271    0.0000 H       1  UNL1        0.0238
     78 H           3.2320    6.0801    0.0000 H       1  UNL1        0.0238
     79 H           5.3059    6.0801    0.0000 H       1  UNL1        0.0238
     80 H           5.0790    6.9271    0.0000 H       1  UNL1        0.0238
     81 H           4.2320    6.7001    0.0000 H       1  UNL1        0.0238
     82 H           2.0000    3.8341    0.0000 H       1  UNL1        0.2098
     83 H          15.3548   -1.2090    0.0000 H       1  UNL1        0.0618
     84 H           8.7018    5.0801    0.0000 H       1  UNL1        0.0275
     85 H           8.4748    5.9271    0.0000 H       1  UNL1        0.0275
     86 H           7.6279    5.7001    0.0000 H       1  UNL1        0.0275
     87 H           7.8548    3.1211    0.0000 H       1  UNL1        0.0618
     88 H          15.4748    0.7309    0.0000 H       1  UNL1        0.0620
     89 H           9.4748    4.1950    0.0000 H       1  UNL1        0.0618
     90 H           9.3548    2.2551    0.0000 H       1  UNL1        0.0620
     91 H          13.1279   -0.3621    0.0000 H       1  UNL1        0.0278
     92 H          13.3548   -1.2090    0.0000 H       1  UNL1        0.0278
     93 H          14.2018   -0.9821    0.0000 H       1  UNL1        0.0278
     94 H          13.9748    1.5969    0.0000 H       1  UNL1        0.0620
     95 H          12.3548    0.5231    0.0000 H       1  UNL1        0.0618
     96 H          10.8548    1.3891    0.0000 H       1  UNL1        0.0620
     97 H          11.7018    3.3481    0.0000 H       1  UNL1        0.0278
     98 H          11.4748    4.1950    0.0000 H       1  UNL1        0.0278
     99 H          10.6279    3.9681    0.0000 H       1  UNL1        0.0278
    100 H          12.4748    2.4630    0.0000 H       1  UNL1        0.0618
@<TRIPOS>BOND
     1     1     5    1
     2     1     6    1
     3    10     2    1
     4     2    60    1
     5     3    17    1
     6     3    26    1
     7    22     4    1
     8     4    82    1
     9     5     6    1
    10     5     7    1
    11     5    12    1
    12     6     8    1
    13     6    11    1
    14     7     9    1
    15     7    13    1
    16     7    14    1
    17     8    10    1
    18     8    45    1
    19     8    46    1
    20     9    10    1
    21     9    47    1
    22     9    48    1
    23    10    49    1
    24    11    50    1
    25    11    51    1
    26    11    52    1
    27    12    15    2
    28    12    53    1
    29    13    54    1
    30    13    55    1
    31    13    56    1
    32    14    57    1
    33    14    58    1
    34    14    59    1
    35    15    16    1
    36    15    61    1
    37    16    23    1
    38    16    24    2
    39    17    19    1
    40    17    20    1
    41    17    27    1
    42    18    19    1
    43    18    21    1
    44    18    28    1
    45    18    29    1
    46    19    25    2
    47    20    22    1
    48    20    62    1
    49    20    63    1
    50    21    22    1
    51    21    64    1
    52    21    65    1
    53    22    66    1
    54    23    67    1
    55    23    68    1
    56    23    69    1
    57    24    31    1
    58    24    70    1
    59    25    26    1
    60    25    71    1
    61    26    30    1
    62    26    72    1
    63    27    73    1
    64    27    74    1
    65    27    75    1
    66    28    76    1
    67    28    77    1
    68    28    78    1
    69    29    79    1
    70    29    80    1
    71    29    81    1
    72    30    32    1
    73    30    33    2
    74    31    34    2
    75    31    83    1
    76    32    84    1
    77    32    85    1
    78    32    86    1
    79    33    35    1
    80    33    87    1
    81    34    36    1
    82    34    88    1
    83    35    37    2
    84    35    89    1
    85    36    38    1
    86    36    39    2
    87    37    40    1
    88    37    90    1
    89    38    91    1
    90    38    92    1
    91    38    93    1
    92    39    41    1
    93    39    94    1
    94    40    42    2
    95    40    43    1
    96    41    44    2
    97    41    95    1
    98    42    44    1
    99    42    96    1
   100    43    97    1
   101    43    98    1
   102    43    99    1
   103    44   100    1
