@<TRIPOS>MOLECULE
IMPHY008251
 146 152 0 0 0
SMALL
GASTEIGER

@<TRIPOS>ATOM
      1 O           6.0010   -4.5903    0.0000 O.3     1  UNL1       -0.3422
      2 O          10.9838    2.5701    0.0000 O.3     1  UNL1       -0.3449
      3 O          10.4510   -0.4120    0.0000 O.2     1  UNL1       -0.3004
      4 O           4.2690   -4.5903    0.0000 O.3     1  UNL1       -0.3405
      5 O          12.2685    1.4084    0.0000 O.3     1  UNL1       -0.3405
      6 O          12.3252    4.0535    0.0000 O.3     1  UNL1       -0.3378
      7 O           6.0010   -6.5903    0.0000 O.3     1  UNL1       -0.3841
      8 O          14.2806    3.6336    0.0000 O.3     1  UNL1       -0.3864
      9 O           4.2690   -7.5903    0.0000 O.3     1  UNL1       -0.3864
     10 O           2.5369   -6.5903    0.0000 O.3     1  UNL1       -0.3865
     11 O          14.8946    1.7301    0.0000 O.3     1  UNL1       -0.3865
     12 O          13.9736    4.5853    0.0000 O.3     1  UNL1       -0.3405
     13 O           2.5369   -3.5903    0.0000 O.3     1  UNL1       -0.3924
     14 O          14.5309    0.0367    0.0000 O.3     1  UNL1       -0.3924
     15 O          11.7112    5.9570    0.0000 O.3     1  UNL1       -0.3841
     16 O          13.0526    7.4404    0.0000 O.3     1  UNL1       -0.3864
     17 O          15.0080    7.0204    0.0000 O.3     1  UNL1       -0.3865
     18 O          15.9290    4.1653    0.0000 O.3     1  UNL1       -0.3924
     19 C           7.1630   -0.3118    0.0000 C.3     1  UNL1       -0.0227
     20 C           6.4951   -1.0561    0.0000 C.3     1  UNL1       -0.0232
     21 C           8.1415   -0.5180    0.0000 C.3     1  UNL1       -0.0228
     22 C           6.8058   -2.0066    0.0000 C.3     1  UNL1       -0.0297
     23 C           8.8490    0.2464    0.0000 C.3     1  UNL1        0.0327
     24 C           8.5330    1.2390    0.0000 C.3     1  UNL1       -0.0212
     25 C           6.0010   -2.5903    0.0000 C.3     1  UNL1       -0.0087
     26 C           6.8241    0.6732    0.0000 C.3     1  UNL1       -0.0465
     27 C           8.4521   -1.4686    0.0000 C.3     1  UNL1       -0.0485
     28 C           5.5010   -1.0604    0.0000 C.3     1  UNL1       -0.0465
     29 C           7.7843   -2.2129    0.0000 C.3     1  UNL1       -0.0491
     30 C           7.5138    1.4538    0.0000 C.3     1  UNL1       -0.0482
     31 C           5.1963   -2.0066    0.0000 C.3     1  UNL1       -0.0468
     32 C           9.2514    2.0521    0.0000 C.3     1  UNL1       -0.0048
     33 C           9.9052   -0.0018    0.0000 C.3     1  UNL1       -0.0380
     34 C           6.3140    0.2166    0.0000 C.3     1  UNL1       -0.0588
     35 C           5.8781   -0.2692    0.0000 C.3     1  UNL1       -0.0588
     36 C           6.0010   -3.5903    0.0000 C.3     1  UNL1        0.0732
     37 C          10.3131    1.8284    0.0000 C.3     1  UNL1        0.0672
     38 C          10.6422    0.7945    0.0000 C.3     1  UNL1       -0.0251
     39 C           9.4599   -0.5453    0.0000 C.2     1  UNL1        0.1270
     40 C           9.4538    3.0314    0.0000 C.3     1  UNL1       -0.0572
     41 C           8.5045    2.7171    0.0000 C.3     1  UNL1       -0.0572
     42 C           7.0010   -3.5903    0.0000 C.3     1  UNL1       -0.0202
     43 C           5.0010   -3.5903    0.0000 C.3     1  UNL1       -0.0354
     44 C           7.5010   -4.4563    0.0000 C.3     1  UNL1       -0.0319
     45 C           5.1350   -5.0903    0.0000 C.3     1  UNL1        0.1885
     46 C          11.9615    2.3601    0.0000 C.3     1  UNL1        0.1886
     47 C          12.6322    3.1018    0.0000 C.3     1  UNL1        0.1406
     48 C           5.1350   -6.0903    0.0000 C.3     1  UNL1        0.1341
     49 C           8.5010   -4.4563    0.0000 C.2     1  UNL1       -0.0852
     50 C          13.6099    2.8918    0.0000 C.3     1  UNL1        0.1144
     51 C           4.2690   -6.5903    0.0000 C.3     1  UNL1        0.1141
     52 C           3.4030   -5.0903    0.0000 C.3     1  UNL1        0.1130
     53 C          13.2462    1.1984    0.0000 C.3     1  UNL1        0.1130
     54 C           3.4030   -6.0903    0.0000 C.3     1  UNL1        0.1119
     55 C          13.9169    1.9401    0.0000 C.3     1  UNL1        0.1119
     56 C           9.0010   -5.3223    0.0000 C.2     1  UNL1       -0.0796
     57 C           2.5369   -4.5903    0.0000 C.3     1  UNL1        0.0730
     58 C          13.5532    0.2467    0.0000 C.3     1  UNL1        0.0730
     59 C          12.9959    4.7952    0.0000 C.3     1  UNL1        0.1885
     60 C          10.0010   -5.3223    0.0000 C.3     1  UNL1       -0.0440
     61 C           8.5010   -6.1883    0.0000 C.3     1  UNL1       -0.0440
     62 C          12.6889    5.7470    0.0000 C.3     1  UNL1        0.1341
     63 C          13.3596    6.4887    0.0000 C.3     1  UNL1        0.1141
     64 C          14.6443    5.3270    0.0000 C.3     1  UNL1        0.1130
     65 C          14.3373    6.2787    0.0000 C.3     1  UNL1        0.1119
     66 C          15.6220    5.1170    0.0000 C.3     1  UNL1        0.0730
     67 H           8.9718   -0.6997    0.0000 H       1  UNL1        0.0316
     68 H           6.9828   -2.8380    0.0000 H       1  UNL1        0.0310
     69 H           8.2658    2.0459    0.0000 H       1  UNL1        0.0316
     70 H           5.2438   -2.9765    0.0000 H       1  UNL1        0.0331
     71 H           6.4366    1.1571    0.0000 H       1  UNL1        0.0271
     72 H           6.2810    0.3741    0.0000 H       1  UNL1        0.0271
     73 H           8.8347   -1.9565    0.0000 H       1  UNL1        0.0268
     74 H           8.9990   -1.1766    0.0000 H       1  UNL1        0.0268
     75 H           5.5635   -0.4436    0.0000 H       1  UNL1        0.0271
     76 H           4.8942   -0.9334    0.0000 H       1  UNL1        0.0271
     77 H           7.5530   -2.7881    0.0000 H       1  UNL1        0.0268
     78 H           8.3106   -2.5405    0.0000 H       1  UNL1        0.0268
     79 H           7.7436    2.0296    0.0000 H       1  UNL1        0.0269
     80 H           6.9857    1.7787    0.0000 H       1  UNL1        0.0269
     81 H           4.6294   -1.7556    0.0000 H       1  UNL1        0.0269
     82 H           4.8871   -2.5440    0.0000 H       1  UNL1        0.0269
     83 H           9.6622   -0.5722    0.0000 H       1  UNL1        0.0276
     84 H          10.4256   -0.3389    0.0000 H       1  UNL1        0.0276
     85 H           6.6416    0.7430    0.0000 H       1  UNL1        0.0235
     86 H           5.7876    0.5443    0.0000 H       1  UNL1        0.0235
     87 H           5.9864   -0.3097    0.0000 H       1  UNL1        0.0235
     88 H           6.3660    0.1134    0.0000 H       1  UNL1        0.0235
     89 H           5.4955    0.2187    0.0000 H       1  UNL1        0.0235
     90 H           5.3902   -0.6517    0.0000 H       1  UNL1        0.0235
     91 H          10.9190    1.6970    0.0000 H       1  UNL1        0.0602
     92 H          11.0184    0.3017    0.0000 H       1  UNL1        0.0291
     93 H          11.1921    1.0809    0.0000 H       1  UNL1        0.0291
     94 H           9.2243   -1.1187    0.0000 H       1  UNL1        0.1032
     95 H          10.0610    2.9059    0.0000 H       1  UNL1        0.0236
     96 H           8.9168    3.1801    0.0000 H       1  UNL1        0.0236
     97 H           8.0414    3.1294    0.0000 H       1  UNL1        0.0236
     98 H           9.5793    3.6386    0.0000 H       1  UNL1        0.0236
     99 H           8.8467    3.1569    0.0000 H       1  UNL1        0.0236
    100 H           8.0922    2.2540    0.0000 H       1  UNL1        0.0236
    101 H           7.5836   -3.3782    0.0000 H       1  UNL1        0.0296
    102 H           6.8934   -2.9797    0.0000 H       1  UNL1        0.0296
    103 H           5.0010   -2.9703    0.0000 H       1  UNL1        0.0257
    104 H           4.3810   -3.5903    0.0000 H       1  UNL1        0.0257
    105 H           5.0010   -4.2103    0.0000 H       1  UNL1        0.0257
    106 H           6.9184   -4.6683    0.0000 H       1  UNL1        0.0308
    107 H           7.6087   -5.0669    0.0000 H       1  UNL1        0.0308
    108 H           5.1350   -4.4703    0.0000 H       1  UNL1        0.0938
    109 H          11.7711    2.9502    0.0000 H       1  UNL1        0.0938
    110 H          13.0480    3.5617    0.0000 H       1  UNL1        0.0675
    111 H           5.1350   -6.7103    0.0000 H       1  UNL1        0.0671
    112 H           8.8110   -3.9194    0.0000 H       1  UNL1        0.0571
    113 H          14.2161    2.7616    0.0000 H       1  UNL1        0.0648
    114 H           3.7320   -6.9003    0.0000 H       1  UNL1        0.0648
    115 H           3.4030   -4.4703    0.0000 H       1  UNL1        0.0647
    116 H          12.8303    0.7385    0.0000 H       1  UNL1        0.0647
    117 H           2.8660   -5.7803    0.0000 H       1  UNL1        0.0647
    118 H          14.1072    1.3500    0.0000 H       1  UNL1        0.0647
    119 H           6.0010   -7.2103    0.0000 H       1  UNL1        0.2101
    120 H           1.9264   -4.4826    0.0000 H       1  UNL1        0.0584
    121 H           2.3249   -5.1729    0.0000 H       1  UNL1        0.0584
    122 H          12.9390    0.1617    0.0000 H       1  UNL1        0.0584
    123 H          13.5302   -0.3729    0.0000 H       1  UNL1        0.0584
    124 H          12.3897    4.9254    0.0000 H       1  UNL1        0.0938
    125 H          14.8868    3.5034    0.0000 H       1  UNL1        0.2100
    126 H           3.7320   -7.9003    0.0000 H       1  UNL1        0.2100
    127 H           7.9641   -5.8783    0.0000 H       1  UNL1        0.0274
    128 H          10.0010   -5.9423    0.0000 H       1  UNL1        0.0274
    129 H          10.6210   -5.3223    0.0000 H       1  UNL1        0.0274
    130 H           8.1910   -6.7253    0.0000 H       1  UNL1        0.0274
    131 H           9.0380   -6.4983    0.0000 H       1  UNL1        0.0274
    132 H          10.0010   -4.7023    0.0000 H       1  UNL1        0.0274
    133 H           2.0000   -6.2803    0.0000 H       1  UNL1        0.2100
    134 H          15.3104    2.1900    0.0000 H       1  UNL1        0.2100
    135 H          12.4986    6.3370    0.0000 H       1  UNL1        0.0671
    136 H           2.0000   -3.2803    0.0000 H       1  UNL1        0.2095
    137 H          14.7212   -0.5534    0.0000 H       1  UNL1        0.2095
    138 H          13.7754    6.9486    0.0000 H       1  UNL1        0.0648
    139 H          14.8346    4.7369    0.0000 H       1  UNL1        0.0647
    140 H          14.9435    6.1485    0.0000 H       1  UNL1        0.0647
    141 H          11.5208    6.5470    0.0000 H       1  UNL1        0.2101
    142 H          16.2361    5.2020    0.0000 H       1  UNL1        0.0584
    143 H          15.6450    5.7366    0.0000 H       1  UNL1        0.0584
    144 H          13.4684    7.9003    0.0000 H       1  UNL1        0.2100
    145 H          15.6142    6.8902    0.0000 H       1  UNL1        0.2100
    146 H          16.5352    4.0351    0.0000 H       1  UNL1        0.2095
@<TRIPOS>BOND
     1    36     1    1
     2    45     1    1
     3    37     2    1
     4    46     2    1
     5     3    39    2
     6     4    45    1
     7     4    52    1
     8     5    46    1
     9     5    53    1
    10    47     6    1
    11    59     6    1
    12    48     7    1
    13     7   119    1
    14    50     8    1
    15     8   125    1
    16    51     9    1
    17     9   126    1
    18    54    10    1
    19    10   133    1
    20    55    11    1
    21    11   134    1
    22    12    59    1
    23    12    64    1
    24    13    57    1
    25    13   136    1
    26    14    58    1
    27    14   137    1
    28    62    15    1
    29    15   141    1
    30    63    16    1
    31    16   144    1
    32    65    17    1
    33    17   145    1
    34    18    66    1
    35    18   146    1
    36    19    20    1
    37    19    21    1
    38    19    26    1
    39    19    34    1
    40    20    22    1
    41    20    28    1
    42    20    35    1
    43    21    23    1
    44    21    27    1
    45    21    67    1
    46    22    25    1
    47    22    29    1
    48    22    68    1
    49    23    24    1
    50    23    33    1
    51    23    39    1
    52    24    30    1
    53    24    32    1
    54    24    69    1
    55    25    31    1
    56    25    36    1
    57    25    70    1
    58    26    30    1
    59    26    71    1
    60    26    72    1
    61    27    29    1
    62    27    73    1
    63    27    74    1
    64    28    31    1
    65    28    75    1
    66    28    76    1
    67    29    77    1
    68    29    78    1
    69    30    79    1
    70    30    80    1
    71    31    81    1
    72    31    82    1
    73    32    37    1
    74    32    40    1
    75    32    41    1
    76    33    38    1
    77    33    83    1
    78    33    84    1
    79    34    85    1
    80    34    86    1
    81    34    87    1
    82    35    88    1
    83    35    89    1
    84    35    90    1
    85    36    42    1
    86    36    43    1
    87    37    38    1
    88    37    91    1
    89    38    92    1
    90    38    93    1
    91    39    94    1
    92    40    95    1
    93    40    98    1
    94    40    99    1
    95    41    96    1
    96    41    97    1
    97    41   100    1
    98    42    44    1
    99    42   101    1
   100    42   102    1
   101    43   103    1
   102    43   104    1
   103    43   105    1
   104    44    49    1
   105    44   106    1
   106    44   107    1
   107    45    48    1
   108    45   108    1
   109    46    47    1
   110    46   109    1
   111    47    50    1
   112    47   110    1
   113    48    51    1
   114    48   111    1
   115    49    56    2
   116    49   112    1
   117    50    55    1
   118    50   113    1
   119    51    54    1
   120    51   114    1
   121    52    54    1
   122    52    57    1
   123    52   115    1
   124    53    55    1
   125    53    58    1
   126    53   116    1
   127    54   117    1
   128    55   118    1
   129    56    60    1
   130    56    61    1
   131    57   120    1
   132    57   121    1
   133    58   122    1
   134    58   123    1
   135    59    62    1
   136    59   124    1
   137    60   128    1
   138    60   129    1
   139    60   132    1
   140    61   127    1
   141    61   130    1
   142    61   131    1
   143    62    63    1
   144    62   135    1
   145    63    65    1
   146    63   138    1
   147    64    65    1
   148    64    66    1
   149    64   139    1
   150    65   140    1
   151    66   142    1
   152    66   143    1
