@<TRIPOS>MOLECULE
IMPHY002279
 83 87 0 0 0
SMALL
GASTEIGER

@<TRIPOS>ATOM
      1 O           4.7621   -4.9243    0.0000 O.3     1  UNL1       -0.3912
      2 O           2.2712   -4.4268    0.0000 O.3     1  UNL1       -0.3944
      3 O           7.0399    5.0552    0.0000 O.3     1  UNL1       -0.3887
      4 O           8.0717    3.2358    0.0000 O.3     1  UNL1       -0.3892
      5 O           3.3714    4.1115    0.0000 O.2     1  UNL1       -0.2967
      6 C           4.4894   -1.7807    0.0000 C.3     1  UNL1       -0.0249
      7 C           4.3955   -0.7433    0.0000 C.3     1  UNL1       -0.0265
      8 C           3.6333   -2.3741    0.0000 C.3     1  UNL1       -0.0255
      9 C           3.4945   -0.3094    0.0000 C.3     1  UNL1       -0.0105
     10 C           3.7060   -3.4566    0.0000 C.3     1  UNL1        0.0203
     11 C           5.4302    2.3413    0.0000 C.3     1  UNL1       -0.0131
     12 C           2.6948   -1.9221    0.0000 C.3     1  UNL1       -0.0483
     13 C           4.8955    1.4474    0.0000 C.3     1  UNL1       -0.0133
     14 C           5.4775   -2.2287    0.0000 C.3     1  UNL1       -0.0447
     15 C           2.6250   -0.8828    0.0000 C.3     1  UNL1       -0.0436
     16 C           5.2965   -0.3094    0.0000 C.3     1  UNL1       -0.0484
     17 C           4.9163    3.2474    0.0000 C.3     1  UNL1        0.0314
     18 C           5.5190    0.6655    0.0000 C.3     1  UNL1       -0.0457
     19 C           4.6835   -3.9274    0.0000 C.3     1  UNL1        0.0630
     20 C           3.8955    1.4474    0.0000 C.2     1  UNL1       -0.0622
     21 C           3.2720    0.6655    0.0000 C.2     1  UNL1       -0.0779
     22 C           5.5753   -3.3093    0.0000 C.3     1  UNL1       -0.0257
     23 C           5.3112   -1.2110    0.0000 C.3     1  UNL1       -0.0590
     24 C           5.4516    4.1912    0.0000 C.3     1  UNL1        0.0035
     25 C           6.5149    2.3162    0.0000 C.3     1  UNL1       -0.0178
     26 C           2.5936    0.1245    0.0000 C.3     1  UNL1       -0.0558
     27 C           3.3608    2.3413    0.0000 C.3     1  UNL1        0.0276
     28 C           3.2686   -4.3559    0.0000 C.3     1  UNL1        0.0522
     29 C           6.5366    4.1912    0.0000 C.3     1  UNL1        0.0868
     30 C           2.7085   -3.5275    0.0000 C.3     1  UNL1       -0.0548
     31 C           7.0718    3.2474    0.0000 C.3     1  UNL1        0.0821
     32 C           3.8747    3.2474    0.0000 C.2     1  UNL1        0.1415
     33 C           5.9235    1.4714    0.0000 C.3     1  UNL1       -0.0583
     34 C           5.4477    5.1912    0.0000 C.3     1  UNL1       -0.0567
     35 C           4.5836    4.6878    0.0000 C.3     1  UNL1       -0.0567
     36 H           5.1349   -1.1626    0.0000 H       1  UNL1        0.0314
     37 H           2.9291   -2.8502    0.0000 H       1  UNL1        0.0313
     38 H           5.7436    1.5043    0.0000 H       1  UNL1        0.0351
     39 H           2.0782   -1.8572    0.0000 H       1  UNL1        0.0269
     40 H           2.5253   -2.5185    0.0000 H       1  UNL1        0.0269
     41 H           6.0954   -2.2793    0.0000 H       1  UNL1        0.0271
     42 H           5.6331   -1.6286    0.0000 H       1  UNL1        0.0271
     43 H           2.3772   -0.3145    0.0000 H       1  UNL1        0.0274
     44 H           2.0226   -1.0296    0.0000 H       1  UNL1        0.0274
     45 H           5.4344   -0.9139    0.0000 H       1  UNL1        0.0269
     46 H           5.9165   -0.3094    0.0000 H       1  UNL1        0.0269
     47 H           4.4885    3.9818    0.0000 H       1  UNL1        0.0389
     48 H           6.0776    0.3965    0.0000 H       1  UNL1        0.0271
     49 H           5.9056    1.1503    0.0000 H       1  UNL1        0.0271
     50 H           4.1720   -4.2776    0.0000 H       1  UNL1        0.0599
     51 H           2.6676    0.8035    0.0000 H       1  UNL1        0.0577
     52 H           5.8361   -3.8718    0.0000 H       1  UNL1        0.0290
     53 H           6.1741   -3.1486    0.0000 H       1  UNL1        0.0290
     54 H           5.6644   -1.7206    0.0000 H       1  UNL1        0.0235
     55 H           5.8208   -0.8578    0.0000 H       1  UNL1        0.0235
     56 H           4.9580   -0.7014    0.0000 H       1  UNL1        0.0235
     57 H           6.3947    1.7080    0.0000 H       1  UNL1        0.0297
     58 H           7.0936    2.0937    0.0000 H       1  UNL1        0.0297
     59 H           2.8626    0.6831    0.0000 H       1  UNL1        0.0238
     60 H           2.0350    0.3935    0.0000 H       1  UNL1        0.0238
     61 H           2.3246   -0.4341    0.0000 H       1  UNL1        0.0238
     62 H           2.8818    2.7349    0.0000 H       1  UNL1        0.0387
     63 H           2.8910    1.9367    0.0000 H       1  UNL1        0.0387
     64 H           3.2045   -4.9726    0.0000 H       1  UNL1        0.0563
     65 H           3.8648   -4.5261    0.0000 H       1  UNL1        0.0563
     66 H           6.2276    4.7287    0.0000 H       1  UNL1        0.0625
     67 H           2.6646   -2.9091    0.0000 H       1  UNL1        0.0237
     68 H           2.0901   -3.5715    0.0000 H       1  UNL1        0.0237
     69 H           2.7525   -4.1460    0.0000 H       1  UNL1        0.0237
     70 H           7.3745    2.7063    0.0000 H       1  UNL1        0.0619
     71 H           5.3842    1.1656    0.0000 H       1  UNL1        0.0235
     72 H           6.2293    0.9321    0.0000 H       1  UNL1        0.0235
     73 H           6.4628    1.7773    0.0000 H       1  UNL1        0.0235
     74 H           6.0677    5.1935    0.0000 H       1  UNL1        0.0236
     75 H           4.8915    5.2259    0.0000 H       1  UNL1        0.0236
     76 H           4.0455    4.9957    0.0000 H       1  UNL1        0.0236
     77 H           4.2757    4.1497    0.0000 H       1  UNL1        0.0236
     78 H           5.4453    5.8111    0.0000 H       1  UNL1        0.0236
     79 H           4.8277    5.1888    0.0000 H       1  UNL1        0.0236
     80 H           5.3218   -5.1912    0.0000 H       1  UNL1        0.2098
     81 H           2.0000   -4.9844    0.0000 H       1  UNL1        0.2094
     82 H           7.6599    5.0529    0.0000 H       1  UNL1        0.2099
     83 H           8.3755    2.6953    0.0000 H       1  UNL1        0.2099
@<TRIPOS>BOND
     1    19     1    1
     2     1    80    1
     3     2    28    1
     4     2    81    1
     5    29     3    1
     6     3    82    1
     7    31     4    1
     8     4    83    1
     9     5    32    2
    10     6     7    1
    11     6     8    1
    12     6    14    1
    13     6    23    1
    14     7     9    1
    15     7    16    1
    16     7    36    1
    17     8    10    1
    18     8    12    1
    19     8    37    1
    20     9    15    1
    21     9    21    1
    22     9    26    1
    23    10    19    1
    24    10    28    1
    25    10    30    1
    26    11    13    1
    27    11    17    1
    28    11    25    1
    29    11    33    1
    30    12    15    1
    31    12    39    1
    32    12    40    1
    33    13    18    1
    34    13    20    1
    35    13    38    1
    36    14    22    1
    37    14    41    1
    38    14    42    1
    39    15    43    1
    40    15    44    1
    41    16    18    1
    42    16    45    1
    43    16    46    1
    44    17    24    1
    45    17    32    1
    46    17    47    1
    47    18    48    1
    48    18    49    1
    49    19    22    1
    50    19    50    1
    51    20    21    2
    52    20    27    1
    53    21    51    1
    54    22    52    1
    55    22    53    1
    56    23    54    1
    57    23    55    1
    58    23    56    1
    59    24    29    1
    60    24    34    1
    61    24    35    1
    62    25    31    1
    63    25    57    1
    64    25    58    1
    65    26    59    1
    66    26    60    1
    67    26    61    1
    68    27    32    1
    69    27    62    1
    70    27    63    1
    71    28    64    1
    72    28    65    1
    73    29    31    1
    74    29    66    1
    75    30    67    1
    76    30    68    1
    77    30    69    1
    78    31    70    1
    79    33    71    1
    80    33    72    1
    81    33    73    1
    82    34    74    1
    83    34    78    1
    84    34    79    1
    85    35    75    1
    86    35    76    1
    87    35    77    1
