@<TRIPOS>MOLECULE
IMPHY010920
 107 111 0 0 0
SMALL
GASTEIGER

@<TRIPOS>ATOM
      1 O           8.2737   -2.6279    0.0000 O.3     1  UNL1       -0.3451
      2 O           7.3742    2.9380    0.0000 O.3     1  UNL1       -0.3915
      3 O          11.9187   -1.5969    0.0000 O.3     1  UNL1       -0.3912
      4 O           4.3029    2.3707    0.0000 O.3     1  UNL1       -0.3886
      5 O           6.5417   -2.6279    0.0000 O.3     1  UNL1       -0.3405
      6 O           8.2737   -4.6279    0.0000 O.3     1  UNL1       -0.3841
      7 O           6.5417   -5.6279    0.0000 O.3     1  UNL1       -0.3864
      8 O           4.8096   -4.6279    0.0000 O.3     1  UNL1       -0.3865
      9 O           3.9436   -3.1279    0.0000 O.3     1  UNL1       -0.3924
     10 C           7.3857   -0.0620    0.0000 C.3     1  UNL1       -0.0206
     11 C           6.5178    0.4346    0.0000 C.3     1  UNL1       -0.0208
     12 C           8.2498    0.4413    0.0000 C.3     1  UNL1       -0.0269
     13 C           9.1618   -0.0620    0.0000 C.3     1  UNL1       -0.0228
     14 C           6.5139    1.4346    0.0000 C.3     1  UNL1       -0.0036
     15 C           9.1738   -1.1036    0.0000 C.3     1  UNL1       -0.0014
     16 C           7.3737   -1.1036    0.0000 C.3     1  UNL1       -0.0200
     17 C           8.2460    1.4413    0.0000 C.3     1  UNL1       -0.0227
     18 C           5.5665    1.7357    0.0000 C.3     1  UNL1       -0.0067
     19 C           7.3780    1.9380    0.0000 C.3     1  UNL1        0.0592
     20 C           8.2737   -1.6279    0.0000 C.3     1  UNL1        0.0662
     21 C           5.5727    0.1263    0.0000 C.3     1  UNL1       -0.0464
     22 C          10.1113   -1.6497    0.0000 C.3     1  UNL1       -0.0032
     23 C           4.9860    0.9287    0.0000 C.3     1  UNL1       -0.0467
     24 C          10.0864    0.5056    0.0000 C.3     1  UNL1       -0.0446
     25 C           6.7459   -0.8305    0.0000 C.3     1  UNL1       -0.0587
     26 C           6.1794   -0.5064    0.0000 C.3     1  UNL1       -0.0587
     27 C           9.1502    0.9379    0.0000 C.3     1  UNL1       -0.0589
     28 C          11.0489   -1.1036    0.0000 C.3     1  UNL1        0.0607
     29 C          11.0363   -0.0187    0.0000 C.3     1  UNL1       -0.0258
     30 C           5.2522    2.6850    0.0000 C.3     1  UNL1        0.0668
     31 C          10.6113   -2.5157    0.0000 C.3     1  UNL1       -0.0571
     32 C           9.6113   -2.5157    0.0000 C.3     1  UNL1       -0.0571
     33 C           4.9379    3.6344    0.0000 C.3     1  UNL1       -0.0206
     34 C           6.2015    2.9994    0.0000 C.3     1  UNL1       -0.0358
     35 C           7.4077   -3.1279    0.0000 C.3     1  UNL1        0.1882
     36 C           3.9586    3.8368    0.0000 C.3     1  UNL1       -0.0319
     37 C           7.4077   -4.1279    0.0000 C.3     1  UNL1        0.1341
     38 C           6.5417   -4.6279    0.0000 C.3     1  UNL1        0.1141
     39 C           5.6757   -3.1279    0.0000 C.3     1  UNL1        0.1130
     40 C           3.6443    4.7861    0.0000 C.2     1  UNL1       -0.0852
     41 C           5.6757   -4.1279    0.0000 C.3     1  UNL1        0.1119
     42 C           4.8096   -2.6279    0.0000 C.3     1  UNL1        0.0730
     43 C           2.6650    4.9886    0.0000 C.2     1  UNL1       -0.0796
     44 C           2.3506    5.9379    0.0000 C.3     1  UNL1       -0.0440
     45 C           2.0000    4.2417    0.0000 C.3     1  UNL1       -0.0440
     46 H           8.9810    0.8748    0.0000 H       1  UNL1        0.0312
     47 H           6.4207    2.2795    0.0000 H       1  UNL1        0.0335
     48 H           9.1738   -1.9536    0.0000 H       1  UNL1        0.0337
     49 H           6.7641   -0.9904    0.0000 H       1  UNL1        0.0296
     50 H           7.1579   -1.6848    0.0000 H       1  UNL1        0.0296
     51 H           8.8570    1.3360    0.0000 H       1  UNL1        0.0293
     52 H           8.4558    2.0247    0.0000 H       1  UNL1        0.0293
     53 H           4.7263    1.8644    0.0000 H       1  UNL1        0.0332
     54 H           7.9137    2.2500    0.0000 H       1  UNL1        0.0596
     55 H           8.8113   -1.9368    0.0000 H       1  UNL1        0.0600
     56 H           5.0366   -0.1850    0.0000 H       1  UNL1        0.0271
     57 H           5.8260   -0.4397    0.0000 H       1  UNL1        0.0271
     58 H           4.5236    1.3417    0.0000 H       1  UNL1        0.0269
     59 H           4.5268    0.5122    0.0000 H       1  UNL1        0.0269
     60 H          10.4745    0.9892    0.0000 H       1  UNL1        0.0271
     61 H           9.6764    0.9707    0.0000 H       1  UNL1        0.0271
     62 H           6.2694   -0.4338    0.0000 H       1  UNL1        0.0235
     63 H           6.3492   -1.3070    0.0000 H       1  UNL1        0.0235
     64 H           7.2223   -1.2272    0.0000 H       1  UNL1        0.0235
     65 H           5.5960   -0.2966    0.0000 H       1  UNL1        0.0235
     66 H           5.9696   -1.0898    0.0000 H       1  UNL1        0.0235
     67 H           6.7628   -0.7162    0.0000 H       1  UNL1        0.0235
     68 H           9.7701    0.9451    0.0000 H       1  UNL1        0.0235
     69 H           9.1430    1.5579    0.0000 H       1  UNL1        0.0235
     70 H           8.5302    0.9307    0.0000 H       1  UNL1        0.0235
     71 H          11.5828   -0.7884    0.0000 H       1  UNL1        0.0599
     72 H          11.6484   -0.1177    0.0000 H       1  UNL1        0.0290
     73 H          11.2386    0.5674    0.0000 H       1  UNL1        0.0290
     74 H          10.0744   -2.8257    0.0000 H       1  UNL1        0.0236
     75 H          10.9213   -3.0527    0.0000 H       1  UNL1        0.0236
     76 H          11.1483   -2.2057    0.0000 H       1  UNL1        0.0236
     77 H           9.0744   -2.2057    0.0000 H       1  UNL1        0.0236
     78 H           9.3013   -3.0527    0.0000 H       1  UNL1        0.0236
     79 H          10.1483   -2.8257    0.0000 H       1  UNL1        0.0236
     80 H           7.9099    3.2500    0.0000 H       1  UNL1        0.2098
     81 H           5.5514    3.7241    0.0000 H       1  UNL1        0.0296
     82 H           4.9561    4.2541    0.0000 H       1  UNL1        0.0296
     83 H           6.3964    2.4108    0.0000 H       1  UNL1        0.0257
     84 H           6.7901    3.1942    0.0000 H       1  UNL1        0.0257
     85 H           6.0066    3.5879    0.0000 H       1  UNL1        0.0257
     86 H           7.9446   -3.4379    0.0000 H       1  UNL1        0.0937
     87 H          12.4533   -1.2828    0.0000 H       1  UNL1        0.2098
     88 H           3.8398    2.7830    0.0000 H       1  UNL1        0.2102
     89 H           3.3451    3.7471    0.0000 H       1  UNL1        0.0308
     90 H           3.9404    3.2171    0.0000 H       1  UNL1        0.0308
     91 H           7.4077   -4.7479    0.0000 H       1  UNL1        0.0671
     92 H           6.0047   -4.9379    0.0000 H       1  UNL1        0.0648
     93 H           5.6757   -2.5079    0.0000 H       1  UNL1        0.0647
     94 H           4.0565    5.2492    0.0000 H       1  UNL1        0.0571
     95 H           5.1387   -3.8179    0.0000 H       1  UNL1        0.0647
     96 H           8.2737   -5.2479    0.0000 H       1  UNL1        0.2101
     97 H           5.2082   -2.1529    0.0000 H       1  UNL1        0.0584
     98 H           4.4111   -2.1529    0.0000 H       1  UNL1        0.0584
     99 H           6.0047   -5.9379    0.0000 H       1  UNL1        0.2100
    100 H           4.8096   -5.2479    0.0000 H       1  UNL1        0.2100
    101 H           1.5369    4.6540    0.0000 H       1  UNL1        0.0274
    102 H           1.5877    3.7786    0.0000 H       1  UNL1        0.0274
    103 H           2.4631    3.8294    0.0000 H       1  UNL1        0.0274
    104 H           2.9392    6.1328    0.0000 H       1  UNL1        0.0274
    105 H           2.1558    6.5264    0.0000 H       1  UNL1        0.0274
    106 H           1.7621    5.7430    0.0000 H       1  UNL1        0.0274
    107 H           3.4067   -2.8179    0.0000 H       1  UNL1        0.2095
@<TRIPOS>BOND
     1    20     1    1
     2    35     1    1
     3    19     2    1
     4     2    80    1
     5    28     3    1
     6     3    87    1
     7    30     4    1
     8     4    88    1
     9     5    35    1
    10     5    39    1
    11    37     6    1
    12     6    96    1
    13    38     7    1
    14     7    99    1
    15    41     8    1
    16     8   100    1
    17     9    42    1
    18     9   107    1
    19    10    11    1
    20    10    12    1
    21    10    16    1
    22    10    25    1
    23    11    14    1
    24    11    21    1
    25    11    26    1
    26    12    13    1
    27    12    17    1
    28    12    46    1
    29    13    15    1
    30    13    24    1
    31    13    27    1
    32    14    18    1
    33    14    19    1
    34    14    47    1
    35    15    20    1
    36    15    22    1
    37    15    48    1
    38    16    20    1
    39    16    49    1
    40    16    50    1
    41    17    19    1
    42    17    51    1
    43    17    52    1
    44    18    23    1
    45    18    30    1
    46    18    53    1
    47    19    54    1
    48    20    55    1
    49    21    23    1
    50    21    56    1
    51    21    57    1
    52    22    28    1
    53    22    31    1
    54    22    32    1
    55    23    58    1
    56    23    59    1
    57    24    29    1
    58    24    60    1
    59    24    61    1
    60    25    62    1
    61    25    63    1
    62    25    64    1
    63    26    65    1
    64    26    66    1
    65    26    67    1
    66    27    68    1
    67    27    69    1
    68    27    70    1
    69    28    29    1
    70    28    71    1
    71    29    72    1
    72    29    73    1
    73    30    33    1
    74    30    34    1
    75    31    74    1
    76    31    75    1
    77    31    76    1
    78    32    77    1
    79    32    78    1
    80    32    79    1
    81    33    36    1
    82    33    81    1
    83    33    82    1
    84    34    83    1
    85    34    84    1
    86    34    85    1
    87    35    37    1
    88    35    86    1
    89    36    40    1
    90    36    89    1
    91    36    90    1
    92    37    38    1
    93    37    91    1
    94    38    41    1
    95    38    92    1
    96    39    41    1
    97    39    42    1
    98    39    93    1
    99    40    43    2
   100    40    94    1
   101    41    95    1
   102    42    97    1
   103    42    98    1
   104    43    44    1
   105    43    45    1
   106    44   104    1
   107    44   105    1
   108    44   106    1
   109    45   101    1
   110    45   102    1
   111    45   103    1
