@<TRIPOS>MOLECULE
IMPHY007026
 98 101 0 0 0
SMALL
GASTEIGER

@<TRIPOS>ATOM
      1 O           6.0010    3.1272    0.0000 O.3     1  UNL1       -0.3449
      2 O           5.1350    1.6272    0.0000 O.3     1  UNL1       -0.3461
      3 O           4.2690    4.1272    0.0000 O.3     1  UNL1       -0.3841
      4 O           2.5369    3.1272    0.0000 O.3     1  UNL1       -0.3864
      5 O           2.5369    1.1272    0.0000 O.3     1  UNL1       -0.3869
      6 O          14.2101   -0.2301    0.0000 O.3     1  UNL1       -0.4806
      7 O          14.1901   -1.9620    0.0000 O.2     1  UNL1       -0.2510
      8 C           8.5991    1.6272    0.0000 C.3     1  UNL1       -0.0221
      9 C           8.5991    2.6272    0.0000 C.3     1  UNL1       -0.0273
     10 C           7.7331    3.1272    0.0000 C.3     1  UNL1       -0.0052
     11 C           9.4931    1.0925    0.0000 C.3     1  UNL1       -0.0145
     12 C           7.7331    1.1272    0.0000 C.3     1  UNL1       -0.0444
     13 C           6.8671    2.6272    0.0000 C.3     1  UNL1        0.0672
     14 C           9.4931    3.1618    0.0000 C.3     1  UNL1       -0.0454
     15 C           6.8671    1.6272    0.0000 C.3     1  UNL1       -0.0255
     16 C           8.5991    0.6272    0.0000 C.3     1  UNL1       -0.0587
     17 C          10.3991    1.6064    0.0000 C.2     1  UNL1       -0.0730
     18 C          10.3991    2.6480    0.0000 C.3     1  UNL1       -0.0314
     19 C           9.4815    0.0926    0.0000 C.3     1  UNL1       -0.0455
     20 C           7.2331    3.9932    0.0000 C.3     1  UNL1       -0.0572
     21 C           8.2331    3.9932    0.0000 C.3     1  UNL1       -0.0572
     22 C          10.3417   -0.4174    0.0000 C.3     1  UNL1       -0.0454
     23 C          10.3301   -1.4173    0.0000 C.3     1  UNL1       -0.0142
     24 C          11.1903   -1.9273    0.0000 C.3     1  UNL1       -0.0183
     25 C          11.1787   -2.9272    0.0000 C.3     1  UNL1       -0.0110
     26 C          11.2632    1.1030    0.0000 C.2     1  UNL1       -0.0992
     27 C           9.4584   -1.9073    0.0000 C.2     1  UNL1       -0.0729
     28 C           5.1350    2.6272    0.0000 C.3     1  UNL1        0.1878
     29 C          12.1902   -1.9389    0.0000 C.3     1  UNL1       -0.0365
     30 C          10.3070   -3.4172    0.0000 C.3     1  UNL1       -0.0275
     31 C          11.7003   -1.0671    0.0000 C.3     1  UNL1       -0.0585
     32 C           9.4468   -2.9072    0.0000 C.2     1  UNL1       -0.0842
     33 C           4.2690    3.1272    0.0000 C.3     1  UNL1        0.1341
     34 C          12.0389   -3.4372    0.0000 C.2     1  UNL1       -0.0758
     35 C           8.5982   -1.3973    0.0000 C.3     1  UNL1       -0.0435
     36 C          12.7002   -1.0787    0.0000 C.3     1  UNL1        0.0453
     37 C           3.4030    2.6272    0.0000 C.3     1  UNL1        0.1137
     38 C           3.4030    1.6272    0.0000 C.3     1  UNL1        0.1069
     39 C           4.2690    1.1272    0.0000 C.3     1  UNL1        0.0792
     40 C          12.0274   -4.4372    0.0000 C.3     1  UNL1       -0.0437
     41 C          12.9107   -2.9473    0.0000 C.2     1  UNL1       -0.0994
     42 C          13.7001   -1.0903    0.0000 C.2     1  UNL1        0.3047
     43 H           8.5943    3.2472    0.0000 H       1  UNL1        0.0312
     44 H          10.0270    0.7773    0.0000 H       1  UNL1        0.0351
     45 H           7.3346    0.6522    0.0000 H       1  UNL1        0.0272
     46 H           8.1316    0.6522    0.0000 H       1  UNL1        0.0272
     47 H           6.3301    2.3172    0.0000 H       1  UNL1        0.0602
     48 H           9.8867    3.6408    0.0000 H       1  UNL1        0.0271
     49 H           9.0885    3.6316    0.0000 H       1  UNL1        0.0271
     50 H           6.2565    1.7348    0.0000 H       1  UNL1        0.0290
     51 H           6.6550    1.0446    0.0000 H       1  UNL1        0.0290
     52 H           7.9791    0.6272    0.0000 H       1  UNL1        0.0235
     53 H           8.5991    0.0072    0.0000 H       1  UNL1        0.0235
     54 H           9.2191    0.6272    0.0000 H       1  UNL1        0.0235
     55 H          11.0100    2.5419    0.0000 H       1  UNL1        0.0310
     56 H          10.6082    3.2317    0.0000 H       1  UNL1        0.0310
     57 H           8.8722    0.2073    0.0000 H       1  UNL1        0.0271
     58 H           9.2627   -0.4875    0.0000 H       1  UNL1        0.0271
     59 H           8.7700    3.6832    0.0000 H       1  UNL1        0.0236
     60 H           8.5431    4.5301    0.0000 H       1  UNL1        0.0236
     61 H           7.6962    4.3032    0.0000 H       1  UNL1        0.0236
     62 H           7.7700    4.3032    0.0000 H       1  UNL1        0.0236
     63 H           6.9231    4.5301    0.0000 H       1  UNL1        0.0236
     64 H           6.6962    3.6832    0.0000 H       1  UNL1        0.0236
     65 H          10.9510   -0.5321    0.0000 H       1  UNL1        0.0271
     66 H          10.5605    0.1627    0.0000 H       1  UNL1        0.0271
     67 H           9.7968   -1.1012    0.0000 H       1  UNL1        0.0351
     68 H          11.1716   -3.5472    0.0000 H       1  UNL1        0.0354
     69 H          11.2608    0.4830    0.0000 H       1  UNL1        0.0534
     70 H          11.8013    1.4110    0.0000 H       1  UNL1        0.0534
     71 H           5.1350    3.2472    0.0000 H       1  UNL1        0.0937
     72 H          12.0755   -2.5482    0.0000 H       1  UNL1        0.0276
     73 H          12.7704   -2.1577    0.0000 H       1  UNL1        0.0276
     74 H           9.9030   -3.8875    0.0000 H       1  UNL1        0.0313
     75 H          10.7000   -3.8967    0.0000 H       1  UNL1        0.0313
     76 H          12.2336   -1.3833    0.0000 H       1  UNL1        0.0235
     77 H          12.0165   -0.5338    0.0000 H       1  UNL1        0.0235
     78 H          11.1670   -0.7509    0.0000 H       1  UNL1        0.0235
     79 H           8.9063   -3.2110    0.0000 H       1  UNL1        0.0572
     80 H           3.7320    3.4372    0.0000 H       1  UNL1        0.0671
     81 H           8.9144   -0.8640    0.0000 H       1  UNL1        0.0274
     82 H           8.0649   -1.0811    0.0000 H       1  UNL1        0.0274
     83 H           8.2820   -1.9306    0.0000 H       1  UNL1        0.0274
     84 H          12.8149   -0.4694    0.0000 H       1  UNL1        0.0378
     85 H          12.1201   -0.8599    0.0000 H       1  UNL1        0.0378
     86 H           3.9399    2.3172    0.0000 H       1  UNL1        0.0647
     87 H           3.4030    1.0072    0.0000 H       1  UNL1        0.0643
     88 H           3.8705    0.6522    0.0000 H       1  UNL1        0.0587
     89 H           4.6675    0.6522    0.0000 H       1  UNL1        0.0587
     90 H          11.4074   -4.4300    0.0000 H       1  UNL1        0.0274
     91 H          12.0202   -5.0571    0.0000 H       1  UNL1        0.0274
     92 H          12.6473   -4.4443    0.0000 H       1  UNL1        0.0274
     93 H          13.4440   -3.2635    0.0000 H       1  UNL1        0.0534
     94 H          12.9178   -2.3273    0.0000 H       1  UNL1        0.0534
     95 H           3.7320    4.4372    0.0000 H       1  UNL1        0.2101
     96 H           2.0000    2.8172    0.0000 H       1  UNL1        0.2100
     97 H           2.5369    0.5072    0.0000 H       1  UNL1        0.2100
     98 H          14.8301   -0.2372    0.0000 H       1  UNL1        0.2951
@<TRIPOS>BOND
     1     1    13    1
     2     1    28    1
     3     2    28    1
     4     2    39    1
     5     3    33    1
     6     3    95    1
     7     4    37    1
     8     4    96    1
     9     5    38    1
    10     5    97    1
    11     6    42    1
    12     6    98    1
    13     7    42    2
    14     8     9    1
    15     8    11    1
    16     8    12    1
    17     8    16    1
    18     9    10    1
    19     9    14    1
    20     9    43    1
    21    10    13    1
    22    10    20    1
    23    10    21    1
    24    11    17    1
    25    11    19    1
    26    11    44    1
    27    12    15    1
    28    12    45    1
    29    12    46    1
    30    13    15    1
    31    13    47    1
    32    14    18    1
    33    14    48    1
    34    14    49    1
    35    15    50    1
    36    15    51    1
    37    16    52    1
    38    16    53    1
    39    16    54    1
    40    17    18    1
    41    17    26    2
    42    18    55    1
    43    18    56    1
    44    19    22    1
    45    19    57    1
    46    19    58    1
    47    20    62    1
    48    20    63    1
    49    20    64    1
    50    21    59    1
    51    21    60    1
    52    21    61    1
    53    22    23    1
    54    22    65    1
    55    22    66    1
    56    23    24    1
    57    23    27    1
    58    23    67    1
    59    24    25    1
    60    24    29    1
    61    24    31    1
    62    25    30    1
    63    25    34    1
    64    25    68    1
    65    26    69    1
    66    26    70    1
    67    27    32    2
    68    27    35    1
    69    28    33    1
    70    28    71    1
    71    29    36    1
    72    29    72    1
    73    29    73    1
    74    30    32    1
    75    30    74    1
    76    30    75    1
    77    31    76    1
    78    31    77    1
    79    31    78    1
    80    32    79    1
    81    33    37    1
    82    33    80    1
    83    34    40    1
    84    34    41    2
    85    35    81    1
    86    35    82    1
    87    35    83    1
    88    36    42    1
    89    36    84    1
    90    36    85    1
    91    37    38    1
    92    37    86    1
    93    38    39    1
    94    38    87    1
    95    39    88    1
    96    39    89    1
    97    40    90    1
    98    40    91    1
    99    40    92    1
   100    41    93    1
   101    41    94    1
