@<TRIPOS>MOLECULE
IMPHY016359
 27 26 0 0 0
SMALL
GASTEIGER

@<TRIPOS>ATOM
      1 O           2.5369    0.5000    0.0000 O.3     1  UNL1       -0.3950
      2 C           5.1350    0.0000    0.0000 C.3     1  UNL1       -0.0369
      3 C           6.0010    0.5000    0.0000 C.3     1  UNL1       -0.0438
      4 C           4.2690    0.5000    0.0000 C.3     1  UNL1       -0.0267
      5 C           5.1350   -1.0000    0.0000 C.3     1  UNL1       -0.0528
      6 C           6.8671    0.0000    0.0000 C.3     1  UNL1       -0.0624
      7 C           6.0010    1.5000    0.0000 C.3     1  UNL1       -0.0624
      8 C           3.4030   -0.0000    0.0000 C.3     1  UNL1        0.0445
      9 C           4.2690   -1.5000    0.0000 C.3     1  UNL1       -0.0650
     10 H           5.1350    0.6200    0.0000 H       1  UNL1        0.0304
     11 H           6.5380    0.8100    0.0000 H       1  UNL1        0.0298
     12 H           4.6675    0.9749    0.0000 H       1  UNL1        0.0290
     13 H           3.8705    0.9749    0.0000 H       1  UNL1        0.0290
     14 H           5.3471   -1.5826    0.0000 H       1  UNL1        0.0265
     15 H           5.7456   -0.8923    0.0000 H       1  UNL1        0.0265
     16 H           6.5571   -0.5369    0.0000 H       1  UNL1        0.0232
     17 H           7.4040   -0.3100    0.0000 H       1  UNL1        0.0232
     18 H           7.1771    0.5369    0.0000 H       1  UNL1        0.0232
     19 H           6.6210    1.5000    0.0000 H       1  UNL1        0.0232
     20 H           6.0010    2.1200    0.0000 H       1  UNL1        0.0232
     21 H           5.3810    1.5000    0.0000 H       1  UNL1        0.0232
     22 H           3.0044   -0.4749    0.0000 H       1  UNL1        0.0557
     23 H           3.8015   -0.4749    0.0000 H       1  UNL1        0.0557
     24 H           3.9590   -0.9631    0.0000 H       1  UNL1        0.0230
     25 H           3.7320   -1.8100    0.0000 H       1  UNL1        0.0230
     26 H           4.5790   -2.0369    0.0000 H       1  UNL1        0.0230
     27 H           2.0000    0.1900    0.0000 H       1  UNL1        0.2094
@<TRIPOS>BOND
     1     1     8    1
     2     1    27    1
     3     2     3    1
     4     2     4    1
     5     2     5    1
     6     2    10    1
     7     3     6    1
     8     3     7    1
     9     3    11    1
    10     4     8    1
    11     4    12    1
    12     4    13    1
    13     5     9    1
    14     5    14    1
    15     5    15    1
    16     6    16    1
    17     6    17    1
    18     6    18    1
    19     7    19    1
    20     7    20    1
    21     7    21    1
    22     8    22    1
    23     8    23    1
    24     9    24    1
    25     9    25    1
    26     9    26    1
