@<TRIPOS>MOLECULE
IMPHY016158
 20 19 0 0 0
SMALL
GASTEIGER

@<TRIPOS>ATOM
      1 O           5.4641    0.7500    0.0000 O.3     1  UNL1       -0.4251
      2 O           3.7320    0.7500    0.0000 O.3     1  UNL1       -0.4251
      3 O           6.3301   -0.7500    0.0000 O.2     1  UNL1       -0.2511
      4 O           2.8660   -0.7500    0.0000 O.2     1  UNL1       -0.2511
      5 C           4.5981    0.2500    0.0000 C.3     1  UNL1        0.2464
      6 C           4.5981   -0.7500    0.0000 C.3     1  UNL1        0.0100
      7 C           6.3301    0.2500    0.0000 C.2     1  UNL1        0.3068
      8 C           2.8660    0.2500    0.0000 C.2     1  UNL1        0.3068
      9 C           7.1962    0.7500    0.0000 C.3     1  UNL1        0.0333
     10 C           2.0000    0.7500    0.0000 C.3     1  UNL1        0.0333
     11 H           4.5981    0.8700    0.0000 H       1  UNL1        0.1204
     12 H           3.9781   -0.7500    0.0000 H       1  UNL1        0.0301
     13 H           4.5981   -1.3700    0.0000 H       1  UNL1        0.0301
     14 H           5.2181   -0.7500    0.0000 H       1  UNL1        0.0301
     15 H           7.5062    0.2131    0.0000 H       1  UNL1        0.0342
     16 H           7.7331    1.0600    0.0000 H       1  UNL1        0.0342
     17 H           6.8862    1.2869    0.0000 H       1  UNL1        0.0342
     18 H           2.3100    1.2869    0.0000 H       1  UNL1        0.0342
     19 H           1.4631    1.0600    0.0000 H       1  UNL1        0.0342
     20 H           1.6900    0.2131    0.0000 H       1  UNL1        0.0342
@<TRIPOS>BOND
     1     1     5    1
     2     1     7    1
     3     2     5    1
     4     2     8    1
     5     3     7    2
     6     4     8    2
     7     5     6    1
     8     5    11    1
     9     6    12    1
    10     6    13    1
    11     6    14    1
    12     7     9    1
    13     8    10    1
    14     9    15    1
    15     9    16    1
    16     9    17    1
    17    10    18    1
    18    10    19    1
    19    10    20    1
