@<TRIPOS>MOLECULE
IMPHY003991
 47 49 0 0 0
SMALL
GASTEIGER

@<TRIPOS>ATOM
      1 O           7.2583   -1.5137    0.0000 O.3     1  UNL1       -0.4830
      2 O           3.7282   -1.5379    0.0000 O.3     1  UNL1       -0.4947
      3 O           7.2583    1.4863    0.0000 O.2     1  UNL1       -0.2918
      4 O          11.5884   -3.0137    0.0000 O.3     1  UNL1       -0.5068
      5 C           8.1243   -1.0137    0.0000 C.3     1  UNL1        0.1322
      6 C           8.1243   -0.0137    0.0000 C.3     1  UNL1        0.0519
      7 C           6.3923   -0.0137    0.0000 C.ar    1  UNL1        0.0597
      8 C           6.3923   -1.0137    0.0000 C.ar    1  UNL1        0.1353
      9 C           7.2583    0.4863    0.0000 C.2     1  UNL1        0.1705
     10 C           8.9904   -1.5137    0.0000 C.ar    1  UNL1       -0.0067
     11 C           4.5923    0.0071    0.0000 C.ar    1  UNL1       -0.0011
     12 C           5.4983    0.5209    0.0000 C.ar    1  UNL1       -0.0408
     13 C           5.4983   -1.5484    0.0000 C.ar    1  UNL1        0.0228
     14 C           4.5923   -1.0346    0.0000 C.ar    1  UNL1        0.1271
     15 C           3.7282    0.5104    0.0000 C.3     1  UNL1       -0.0058
     16 C           9.8564   -1.0137    0.0000 C.ar    1  UNL1       -0.0516
     17 C           8.9904   -2.5137    0.0000 C.ar    1  UNL1       -0.0516
     18 C           3.7320    1.5104    0.0000 C.2     1  UNL1       -0.0809
     19 C          10.7224   -1.5137    0.0000 C.ar    1  UNL1       -0.0198
     20 C           9.8564   -3.0137    0.0000 C.ar    1  UNL1       -0.0198
     21 C          10.7224   -2.5137    0.0000 C.ar    1  UNL1        0.1169
     22 C           2.8680    2.0137    0.0000 C.2     1  UNL1       -0.0793
     23 C           3.7320   -2.5379    0.0000 C.3     1  UNL1        0.0788
     24 C           2.8718    3.0137    0.0000 C.3     1  UNL1       -0.0440
     25 C           2.0000    1.5171    0.0000 C.3     1  UNL1       -0.0440
     26 H           8.1243   -1.6337    0.0000 H       1  UNL1        0.0789
     27 H           8.7349   -0.1214    0.0000 H       1  UNL1        0.0385
     28 H           8.3364    0.5689    0.0000 H       1  UNL1        0.0385
     29 H           5.5055    1.1409    0.0000 H       1  UNL1        0.0630
     30 H           5.5055   -2.1684    0.0000 H       1  UNL1        0.0691
     31 H           3.1180    0.6204    0.0000 H       1  UNL1        0.0357
     32 H           3.5139   -0.0714    0.0000 H       1  UNL1        0.0357
     33 H           9.8564   -0.3937    0.0000 H       1  UNL1        0.0623
     34 H           8.4534   -2.8237    0.0000 H       1  UNL1        0.0623
     35 H           4.2702    1.8183    0.0000 H       1  UNL1        0.0575
     36 H          11.2593   -1.2037    0.0000 H       1  UNL1        0.0654
     37 H           9.8564   -3.6337    0.0000 H       1  UNL1        0.0654
     38 H           3.1120   -2.5403    0.0000 H       1  UNL1        0.0660
     39 H           3.7344   -3.1579    0.0000 H       1  UNL1        0.0660
     40 H           4.3520   -2.5355    0.0000 H       1  UNL1        0.0660
     41 H           3.4918    3.0113    0.0000 H       1  UNL1        0.0274
     42 H           2.8742    3.6337    0.0000 H       1  UNL1        0.0274
     43 H           2.2518    3.0161    0.0000 H       1  UNL1        0.0274
     44 H           1.6921    2.0552    0.0000 H       1  UNL1        0.0274
     45 H           1.4619    1.2092    0.0000 H       1  UNL1        0.0274
     46 H           2.3079    0.9790    0.0000 H       1  UNL1        0.0274
     47 H          12.1254   -2.7037    0.0000 H       1  UNL1        0.2921
@<TRIPOS>BOND
     1     1     5    1
     2     1     8    1
     3     2    14    1
     4     2    23    1
     5     3     9    2
     6     4    21    1
     7     4    47    1
     8     5     6    1
     9     5    10    1
    10     5    26    1
    11     6     9    1
    12     6    27    1
    13     6    28    1
    14     7     8   ar
    15     7     9    1
    16     7    12   ar
    17     8    13   ar
    18    10    16   ar
    19    10    17   ar
    20    11    12   ar
    21    11    14   ar
    22    11    15    1
    23    12    29    1
    24    13    14   ar
    25    13    30    1
    26    15    18    1
    27    15    31    1
    28    15    32    1
    29    16    19   ar
    30    16    33    1
    31    17    20   ar
    32    17    34    1
    33    18    22    2
    34    18    35    1
    35    19    21   ar
    36    19    36    1
    37    20    21   ar
    38    20    37    1
    39    22    24    1
    40    22    25    1
    41    23    38    1
    42    23    39    1
    43    23    40    1
    44    24    41    1
    45    24    42    1
    46    24    43    1
    47    25    44    1
    48    25    45    1
    49    25    46    1
