@<TRIPOS>MOLECULE
IMPHY013308
 52 55 0 0 0
SMALL
GASTEIGER

@<TRIPOS>ATOM
      1 O           2.0520    0.8137    0.0000 O.co2   1  UNL1       -0.7743
      2 O           2.8963    3.3452    0.0000 O.3     1  UNL1       -0.4910
      3 O           5.6405   -3.3232    0.0000 O.3     1  UNL1       -0.4914
      4 O           3.8372   -4.3830    0.0000 O.3     1  UNL1       -0.4914
      5 O           4.6622    4.3830    0.0000 O.3     1  UNL1       -0.4914
      6 N           2.9180    0.3137    0.0000 N.3     1  UNL1        0.2264
      7 C           3.7841   -0.1863    0.0000 C.3     1  UNL1        0.0090
      8 C           2.0080   -0.1931    0.0000 C.3     1  UNL1       -0.0277
      9 C           2.9180    1.3137    0.0000 C.3     1  UNL1       -0.0022
     10 C           4.6501    0.3137    0.0000 C.3     1  UNL1        0.0204
     11 C           3.8001   -1.2278    0.0000 C.ar    1  UNL1        0.0074
     12 C           2.0000   -1.2347    0.0000 C.3     1  UNL1        0.0132
     13 C           3.7841    1.8137    0.0000 C.ar    1  UNL1        0.0455
     14 C           2.9021   -1.7555    0.0000 C.ar    1  UNL1       -0.0302
     15 C           4.6501    1.3137    0.0000 C.ar    1  UNL1       -0.0298
     16 C           4.7520   -1.7484    0.0000 C.ar    1  UNL1       -0.0075
     17 C           3.7680    2.8552    0.0000 C.ar    1  UNL1        0.1699
     18 C           2.8937   -2.8405    0.0000 C.ar    1  UNL1       -0.0125
     19 C           5.5601    1.8206    0.0000 C.ar    1  UNL1       -0.0542
     20 C           4.7688   -2.8333    0.0000 C.ar    1  UNL1        0.1620
     21 C           3.8334   -3.3830    0.0000 C.ar    1  UNL1        0.1618
     22 C           4.6660    3.3830    0.0000 C.ar    1  UNL1        0.1620
     23 C           5.5681    2.8622    0.0000 C.ar    1  UNL1       -0.0160
     24 C           2.8847    4.3451    0.0000 C.3     1  UNL1        0.0790
     25 C           6.5007   -2.8132    0.0000 C.3     1  UNL1        0.0790
     26 C           2.9731   -4.8863    0.0000 C.3     1  UNL1        0.0790
     27 C           5.5263    4.8863    0.0000 C.3     1  UNL1        0.0790
     28 H           4.5234   -0.6056    0.0000 H       1  UNL1        0.0907
     29 H           1.8035    0.3922    0.0000 H       1  UNL1        0.0817
     30 H           1.3964   -0.2945    0.0000 H       1  UNL1        0.0817
     31 H           2.7060    1.8963    0.0000 H       1  UNL1        0.0868
     32 H           2.3074    1.2061    0.0000 H       1  UNL1        0.0868
     33 H           4.8621   -0.2689    0.0000 H       1  UNL1        0.0372
     34 H           5.2607    0.4214    0.0000 H       1  UNL1        0.0372
     35 H           1.3900   -1.1239    0.0000 H       1  UNL1        0.0365
     36 H           1.7864   -1.8168    0.0000 H       1  UNL1        0.0365
     37 H           5.2829   -1.4281    0.0000 H       1  UNL1        0.0660
     38 H           2.3556   -3.1484    0.0000 H       1  UNL1        0.0658
     39 H           6.0934    1.5044    0.0000 H       1  UNL1        0.0622
     40 H           6.1062    3.1701    0.0000 H       1  UNL1        0.0655
     41 H           3.5046    4.3523    0.0000 H       1  UNL1        0.0660
     42 H           2.8775    4.9651    0.0000 H       1  UNL1        0.0660
     43 H           2.2647    4.3380    0.0000 H       1  UNL1        0.0660
     44 H           6.8169   -3.3466    0.0000 H       1  UNL1        0.0660
     45 H           7.0340   -2.4971    0.0000 H       1  UNL1        0.0660
     46 H           6.1845   -2.2799    0.0000 H       1  UNL1        0.0660
     47 H           2.6610   -4.3506    0.0000 H       1  UNL1        0.0660
     48 H           2.4374   -5.1984    0.0000 H       1  UNL1        0.0660
     49 H           3.2852   -5.4221    0.0000 H       1  UNL1        0.0660
     50 H           5.8383    4.3506    0.0000 H       1  UNL1        0.0660
     51 H           6.0620    5.1984    0.0000 H       1  UNL1        0.0660
     52 H           5.2142    5.4220    0.0000 H       1  UNL1        0.0660
@<TRIPOS>UNITY_ATOM_ATTR
1 1
charge -1
6 1
charge 1
@<TRIPOS>BOND
     1     6     1    1
     2     2    17    1
     3     2    24    1
     4     3    20    1
     5     3    25    1
     6     4    21    1
     7     4    26    1
     8     5    22    1
     9     5    27    1
    10     6     7    1
    11     6     8    1
    12     6     9    1
    13     7    10    1
    14     7    11    1
    15     7    28    1
    16     8    12    1
    17     8    29    1
    18     8    30    1
    19     9    13    1
    20     9    31    1
    21     9    32    1
    22    10    15    1
    23    10    33    1
    24    10    34    1
    25    11    14   ar
    26    11    16   ar
    27    12    14    1
    28    12    35    1
    29    12    36    1
    30    13    15   ar
    31    13    17   ar
    32    14    18   ar
    33    15    19   ar
    34    16    20   ar
    35    16    37    1
    36    17    22   ar
    37    18    21   ar
    38    18    38    1
    39    19    23   ar
    40    19    39    1
    41    20    21   ar
    42    22    23   ar
    43    23    40    1
    44    24    41    1
    45    24    42    1
    46    24    43    1
    47    25    44    1
    48    25    45    1
    49    25    46    1
    50    26    47    1
    51    26    48    1
    52    26    49    1
    53    27    50    1
    54    27    51    1
    55    27    52    1
