@<TRIPOS>MOLECULE
IMPHY015977
 170 169 0 0 0
SMALL
GASTEIGER

@<TRIPOS>ATOM
      1 O          27.1147    3.4050    0.0000 O.3     1  UNL1       -0.3915
      2 O           3.7320    0.9050    0.0000 O.3     1  UNL1       -0.3915
      3 O           8.9282   -8.0950    0.0000 O.3     1  UNL1       -0.3915
      4 O          16.7224    2.4050    0.0000 O.3     1  UNL1       -0.4544
      5 O          14.1244    1.9050    0.0000 O.3     1  UNL1       -0.4608
      6 O          14.9904    0.4050    0.0000 O.3     1  UNL1       -0.4608
      7 O          17.5885    0.9050    0.0000 O.2     1  UNL1       -0.2508
      8 O          13.2583    3.4050    0.0000 O.2     1  UNL1       -0.2509
      9 O          15.8564   -1.0950    0.0000 O.2     1  UNL1       -0.2509
     10 C          26.2487    4.9050    0.0000 C.3     1  UNL1       -0.0266
     11 C           4.5981   -0.5950    0.0000 C.3     1  UNL1       -0.0266
     12 C           8.0622   -6.5950    0.0000 C.3     1  UNL1       -0.0266
     13 C          27.1147    5.4050    0.0000 C.3     1  UNL1       -0.0507
     14 C           3.7320   -1.0950    0.0000 C.3     1  UNL1       -0.0507
     15 C           7.1962   -7.0950    0.0000 C.3     1  UNL1       -0.0507
     16 C          26.2487    3.9050    0.0000 C.3     1  UNL1        0.0587
     17 C           4.5981    0.4050    0.0000 C.3     1  UNL1        0.0587
     18 C           8.9282   -7.0950    0.0000 C.3     1  UNL1        0.0587
     19 C          27.1147    6.4050    0.0000 C.3     1  UNL1       -0.0530
     20 C           3.7320   -2.0950    0.0000 C.3     1  UNL1       -0.0530
     21 C           6.3301   -6.5950    0.0000 C.3     1  UNL1       -0.0530
     22 C          21.0526    1.9050    0.0000 C.3     1  UNL1       -0.0530
     23 C          21.9186    2.4050    0.0000 C.3     1  UNL1       -0.0528
     24 C           8.9282    1.9050    0.0000 C.3     1  UNL1       -0.0528
     25 C          12.3923   -4.0950    0.0000 C.3     1  UNL1       -0.0528
     26 C           9.7942    2.4050    0.0000 C.3     1  UNL1       -0.0530
     27 C          13.2583   -3.5950    0.0000 C.3     1  UNL1       -0.0530
     28 C          20.1865    2.4050    0.0000 C.3     1  UNL1       -0.0526
     29 C          22.7846    1.9050    0.0000 C.3     1  UNL1       -0.0496
     30 C           8.0622    2.4050    0.0000 C.3     1  UNL1       -0.0496
     31 C          12.3923   -5.0950    0.0000 C.3     1  UNL1       -0.0496
     32 C          25.3827    3.4050    0.0000 C.3     1  UNL1       -0.0086
     33 C          10.6603    1.9050    0.0000 C.3     1  UNL1       -0.0526
     34 C          13.2583   -2.5950    0.0000 C.3     1  UNL1       -0.0526
     35 C           5.4641    0.9050    0.0000 C.3     1  UNL1       -0.0086
     36 C           9.7942   -6.5950    0.0000 C.3     1  UNL1       -0.0086
     37 C          27.9808    6.9050    0.0000 C.3     1  UNL1       -0.0533
     38 C           2.8660   -2.5950    0.0000 C.3     1  UNL1       -0.0533
     39 C           5.4641   -7.0950    0.0000 C.3     1  UNL1       -0.0533
     40 C          19.3205    1.9050    0.0000 C.3     1  UNL1       -0.0430
     41 C          23.6506    2.4050    0.0000 C.3     1  UNL1       -0.0348
     42 C           7.1962    1.9050    0.0000 C.3     1  UNL1       -0.0348
     43 C          11.5263   -5.5950    0.0000 C.3     1  UNL1       -0.0348
     44 C          11.5263    2.4050    0.0000 C.3     1  UNL1       -0.0430
     45 C          14.1244   -2.0950    0.0000 C.3     1  UNL1       -0.0430
     46 C          27.9808    7.9050    0.0000 C.3     1  UNL1       -0.0559
     47 C          25.3827    2.4050    0.0000 C.2     1  UNL1       -0.0855
     48 C           2.8660   -3.5950    0.0000 C.3     1  UNL1       -0.0559
     49 C           4.5981   -6.5950    0.0000 C.3     1  UNL1       -0.0559
     50 C          18.4545    2.4050    0.0000 C.3     1  UNL1        0.0450
     51 C           5.4641    1.9050    0.0000 C.2     1  UNL1       -0.0855
     52 C          10.6603   -7.0950    0.0000 C.2     1  UNL1       -0.0855
     53 C          24.5167    1.9050    0.0000 C.2     1  UNL1       -0.0879
     54 C           6.3301    2.4050    0.0000 C.2     1  UNL1       -0.0879
     55 C          11.5263   -6.5950    0.0000 C.2     1  UNL1       -0.0879
     56 C          12.3923    1.9050    0.0000 C.3     1  UNL1        0.0449
     57 C          14.1244   -1.0950    0.0000 C.3     1  UNL1        0.0449
     58 C          15.8564    1.9050    0.0000 C.3     1  UNL1        0.1706
     59 C          17.5885    1.9050    0.0000 C.2     1  UNL1        0.3075
     60 C          14.9904    2.4050    0.0000 C.3     1  UNL1        0.1325
     61 C          15.8564    0.9050    0.0000 C.3     1  UNL1        0.1325
     62 C          28.8468    8.4050    0.0000 C.3     1  UNL1       -0.0653
     63 C           2.0000   -4.0950    0.0000 C.3     1  UNL1       -0.0653
     64 C           3.7320   -7.0950    0.0000 C.3     1  UNL1       -0.0653
     65 C          13.2583    2.4050    0.0000 C.2     1  UNL1        0.3072
     66 C          14.9904   -0.5950    0.0000 C.2     1  UNL1        0.3072
     67 H          26.0367    5.4876    0.0000 H       1  UNL1        0.0290
     68 H          25.6381    4.7973    0.0000 H       1  UNL1        0.0290
     69 H           4.8101   -1.1776    0.0000 H       1  UNL1        0.0290
     70 H           5.2087   -0.4873    0.0000 H       1  UNL1        0.0290
     71 H           8.4607   -6.1200    0.0000 H       1  UNL1        0.0290
     72 H           7.6636   -6.1200    0.0000 H       1  UNL1        0.0290
     73 H          27.3268    4.8224    0.0000 H       1  UNL1        0.0266
     74 H          27.7253    5.5127    0.0000 H       1  UNL1        0.0266
     75 H           3.5200   -0.5124    0.0000 H       1  UNL1        0.0266
     76 H           3.1215   -1.2027    0.0000 H       1  UNL1        0.0266
     77 H           6.7976   -7.5700    0.0000 H       1  UNL1        0.0266
     78 H           7.5947   -7.5700    0.0000 H       1  UNL1        0.0266
     79 H          26.7856    4.2150    0.0000 H       1  UNL1        0.0596
     80 H           4.5981    1.0250    0.0000 H       1  UNL1        0.0596
     81 H           9.4651   -7.4050    0.0000 H       1  UNL1        0.0596
     82 H          26.9027    6.9876    0.0000 H       1  UNL1        0.0265
     83 H          26.5042    6.2973    0.0000 H       1  UNL1        0.0265
     84 H           3.9441   -2.6776    0.0000 H       1  UNL1        0.0265
     85 H           4.3426   -1.9873    0.0000 H       1  UNL1        0.0265
     86 H           6.7287   -6.1200    0.0000 H       1  UNL1        0.0265
     87 H           5.9316   -6.1200    0.0000 H       1  UNL1        0.0265
     88 H          20.6540    1.4300    0.0000 H       1  UNL1        0.0265
     89 H          21.4511    1.4300    0.0000 H       1  UNL1        0.0265
     90 H          22.3171    2.8800    0.0000 H       1  UNL1        0.0265
     91 H          21.5201    2.8800    0.0000 H       1  UNL1        0.0265
     92 H           8.5297    1.4300    0.0000 H       1  UNL1        0.0265
     93 H           9.3267    1.4300    0.0000 H       1  UNL1        0.0265
     94 H          12.1803   -3.5124    0.0000 H       1  UNL1        0.0265
     95 H          11.7817   -4.2027    0.0000 H       1  UNL1        0.0265
     96 H          10.1928    2.8800    0.0000 H       1  UNL1        0.0265
     97 H           9.3957    2.8800    0.0000 H       1  UNL1        0.0265
     98 H          13.4704   -4.1776    0.0000 H       1  UNL1        0.0265
     99 H          13.8689   -3.4873    0.0000 H       1  UNL1        0.0265
    100 H          20.5851    2.8800    0.0000 H       1  UNL1        0.0265
    101 H          19.7880    2.8800    0.0000 H       1  UNL1        0.0265
    102 H          22.3861    1.4300    0.0000 H       1  UNL1        0.0268
    103 H          23.1831    1.4300    0.0000 H       1  UNL1        0.0268
    104 H           8.4607    2.8800    0.0000 H       1  UNL1        0.0268
    105 H           7.6636    2.8800    0.0000 H       1  UNL1        0.0268
    106 H          12.6044   -5.6776    0.0000 H       1  UNL1        0.0268
    107 H          13.0029   -4.9873    0.0000 H       1  UNL1        0.0268
    108 H          25.1706    3.9876    0.0000 H       1  UNL1        0.0332
    109 H          24.7721    3.2973    0.0000 H       1  UNL1        0.0332
    110 H          10.2617    1.4300    0.0000 H       1  UNL1        0.0265
    111 H          11.0588    1.4300    0.0000 H       1  UNL1        0.0265
    112 H          13.0463   -2.0124    0.0000 H       1  UNL1        0.0265
    113 H          12.6477   -2.7027    0.0000 H       1  UNL1        0.0265
    114 H           5.6762    0.3224    0.0000 H       1  UNL1        0.0332
    115 H           6.0747    1.0127    0.0000 H       1  UNL1        0.0332
    116 H          10.1928   -6.1200    0.0000 H       1  UNL1        0.0332
    117 H           9.3957   -6.1200    0.0000 H       1  UNL1        0.0332
    118 H          28.1928    6.3224    0.0000 H       1  UNL1        0.0265
    119 H          28.5913    7.0127    0.0000 H       1  UNL1        0.0265
    120 H           2.6540   -2.0124    0.0000 H       1  UNL1        0.0265
    121 H           2.2554   -2.7027    0.0000 H       1  UNL1        0.0265
    122 H           5.0656   -7.5700    0.0000 H       1  UNL1        0.0265
    123 H           5.8626   -7.5700    0.0000 H       1  UNL1        0.0265
    124 H          18.9220    1.4300    0.0000 H       1  UNL1        0.0270
    125 H          19.7190    1.4300    0.0000 H       1  UNL1        0.0270
    126 H          24.0492    2.8800    0.0000 H       1  UNL1        0.0307
    127 H          23.2521    2.8800    0.0000 H       1  UNL1        0.0307
    128 H           6.7976    1.4300    0.0000 H       1  UNL1        0.0307
    129 H           7.5947    1.4300    0.0000 H       1  UNL1        0.0307
    130 H          11.3142   -5.0124    0.0000 H       1  UNL1        0.0307
    131 H          10.9157   -5.7027    0.0000 H       1  UNL1        0.0307
    132 H          11.9248    2.8800    0.0000 H       1  UNL1        0.0270
    133 H          11.1278    2.8800    0.0000 H       1  UNL1        0.0270
    134 H          14.3364   -2.6776    0.0000 H       1  UNL1        0.0270
    135 H          14.7349   -1.9873    0.0000 H       1  UNL1        0.0270
    136 H          27.7687    8.4876    0.0000 H       1  UNL1        0.0263
    137 H          27.3702    7.7973    0.0000 H       1  UNL1        0.0263
    138 H          25.9196    2.0950    0.0000 H       1  UNL1        0.0570
    139 H           3.0781   -4.1776    0.0000 H       1  UNL1        0.0263
    140 H           3.4766   -3.4873    0.0000 H       1  UNL1        0.0263
    141 H           4.9966   -6.1200    0.0000 H       1  UNL1        0.0263
    142 H           4.1996   -6.1200    0.0000 H       1  UNL1        0.0263
    143 H          18.8530    2.8800    0.0000 H       1  UNL1        0.0377
    144 H          18.0560    2.8800    0.0000 H       1  UNL1        0.0377
    145 H           4.9272    2.2150    0.0000 H       1  UNL1        0.0570
    146 H          10.6603   -7.7150    0.0000 H       1  UNL1        0.0570
    147 H          24.5167    1.2850    0.0000 H       1  UNL1        0.0569
    148 H           6.3301    3.0250    0.0000 H       1  UNL1        0.0569
    149 H          12.0632   -6.9050    0.0000 H       1  UNL1        0.0569
    150 H          11.9938    1.4300    0.0000 H       1  UNL1        0.0377
    151 H          12.7908    1.4300    0.0000 H       1  UNL1        0.0377
    152 H          13.9123   -0.5124    0.0000 H       1  UNL1        0.0377
    153 H          13.5138   -1.2027    0.0000 H       1  UNL1        0.0377
    154 H          16.3933    1.5950    0.0000 H       1  UNL1        0.0803
    155 H          27.6517    3.7150    0.0000 H       1  UNL1        0.2098
    156 H           3.1951    0.5950    0.0000 H       1  UNL1        0.2098
    157 H           8.3913   -8.4050    0.0000 H       1  UNL1        0.2098
    158 H          15.3889    2.8800    0.0000 H       1  UNL1        0.0736
    159 H          14.5919    2.8800    0.0000 H       1  UNL1        0.0736
    160 H          16.0685    0.3224    0.0000 H       1  UNL1        0.0736
    161 H          16.4670    1.0127    0.0000 H       1  UNL1        0.0736
    162 H          29.1568    7.8681    0.0000 H       1  UNL1        0.0230
    163 H          29.3837    8.7150    0.0000 H       1  UNL1        0.0230
    164 H          28.5368    8.9419    0.0000 H       1  UNL1        0.0230
    165 H           1.6900   -3.5581    0.0000 H       1  UNL1        0.0230
    166 H           1.4631   -4.4050    0.0000 H       1  UNL1        0.0230
    167 H           2.3100   -4.6319    0.0000 H       1  UNL1        0.0230
    168 H           3.4220   -6.5581    0.0000 H       1  UNL1        0.0230
    169 H           3.1951   -7.4050    0.0000 H       1  UNL1        0.0230
    170 H           4.0420   -7.6319    0.0000 H       1  UNL1        0.0230
@<TRIPOS>BOND
     1    16     1    1
     2     1   155    1
     3    17     2    1
     4     2   156    1
     5    18     3    1
     6     3   157    1
     7     4    58    1
     8     4    59    1
     9     5    60    1
    10     5    65    1
    11     6    61    1
    12     6    66    1
    13     7    59    2
    14     8    65    2
    15     9    66    2
    16    10    13    1
    17    10    16    1
    18    10    67    1
    19    10    68    1
    20    11    14    1
    21    11    17    1
    22    11    69    1
    23    11    70    1
    24    12    15    1
    25    12    18    1
    26    12    71    1
    27    12    72    1
    28    13    19    1
    29    13    73    1
    30    13    74    1
    31    14    20    1
    32    14    75    1
    33    14    76    1
    34    15    21    1
    35    15    77    1
    36    15    78    1
    37    16    32    1
    38    16    79    1
    39    17    35    1
    40    17    80    1
    41    18    36    1
    42    18    81    1
    43    19    37    1
    44    19    82    1
    45    19    83    1
    46    20    38    1
    47    20    84    1
    48    20    85    1
    49    21    39    1
    50    21    86    1
    51    21    87    1
    52    22    23    1
    53    22    28    1
    54    22    88    1
    55    22    89    1
    56    23    29    1
    57    23    90    1
    58    23    91    1
    59    24    26    1
    60    24    30    1
    61    24    92    1
    62    24    93    1
    63    25    27    1
    64    25    31    1
    65    25    94    1
    66    25    95    1
    67    26    33    1
    68    26    96    1
    69    26    97    1
    70    27    34    1
    71    27    98    1
    72    27    99    1
    73    28    40    1
    74    28   100    1
    75    28   101    1
    76    29    41    1
    77    29   102    1
    78    29   103    1
    79    30    42    1
    80    30   104    1
    81    30   105    1
    82    31    43    1
    83    31   106    1
    84    31   107    1
    85    32    47    1
    86    32   108    1
    87    32   109    1
    88    33    44    1
    89    33   110    1
    90    33   111    1
    91    34    45    1
    92    34   112    1
    93    34   113    1
    94    35    51    1
    95    35   114    1
    96    35   115    1
    97    36    52    1
    98    36   116    1
    99    36   117    1
   100    37    46    1
   101    37   118    1
   102    37   119    1
   103    38    48    1
   104    38   120    1
   105    38   121    1
   106    39    49    1
   107    39   122    1
   108    39   123    1
   109    40    50    1
   110    40   124    1
   111    40   125    1
   112    41    53    1
   113    41   126    1
   114    41   127    1
   115    42    54    1
   116    42   128    1
   117    42   129    1
   118    43    55    1
   119    43   130    1
   120    43   131    1
   121    44    56    1
   122    44   132    1
   123    44   133    1
   124    45    57    1
   125    45   134    1
   126    45   135    1
   127    46    62    1
   128    46   136    1
   129    46   137    1
   130    47    53    2
   131    47   138    1
   132    48    63    1
   133    48   139    1
   134    48   140    1
   135    49    64    1
   136    49   141    1
   137    49   142    1
   138    50    59    1
   139    50   143    1
   140    50   144    1
   141    51    54    2
   142    51   145    1
   143    52    55    2
   144    52   146    1
   145    53   147    1
   146    54   148    1
   147    55   149    1
   148    56    65    1
   149    56   150    1
   150    56   151    1
   151    57    66    1
   152    57   152    1
   153    57   153    1
   154    58    60    1
   155    58    61    1
   156    58   154    1
   157    60   158    1
   158    60   159    1
   159    61   160    1
   160    61   161    1
   161    62   162    1
   162    62   163    1
   163    62   164    1
   164    63   165    1
   165    63   166    1
   166    63   167    1
   167    64   168    1
   168    64   169    1
   169    64   170    1
