@<TRIPOS>MOLECULE
IMPHY008652
 45 45 0 0 0
SMALL
GASTEIGER

@<TRIPOS>ATOM
      1 P           5.1350   -0.0950    0.0000 P.3     1  UNL1        0.4754
      2 O           4.2690   -0.5950    0.0000 O.3     1  UNL1       -0.2780
      3 O           2.5369   -1.5950    0.0000 O.3     1  UNL1       -0.3865
      4 O           6.0010   -1.5950    0.0000 O.3     1  UNL1       -0.3865
      5 O           2.5369   -3.5950    0.0000 O.3     1  UNL1       -0.3865
      6 O           6.0010   -3.5950    0.0000 O.3     1  UNL1       -0.3865
      7 O           4.2690   -4.5950    0.0000 O.3     1  UNL1       -0.3865
      8 O           6.0010    0.4050    0.0000 O.3     1  UNL1       -0.2840
      9 O           4.6350    0.7710    0.0000 O.3     1  UNL1       -0.3025
     10 O           5.6350   -0.9610    0.0000 O.2     1  UNL1       -0.2273
     11 O           7.7331    1.4050    0.0000 O.3     1  UNL1       -0.3861
     12 O           7.7331    3.4050    0.0000 O.3     1  UNL1       -0.4621
     13 O           6.8671    4.9050    0.0000 O.2     1  UNL1       -0.2512
     14 C           4.2690   -1.5950    0.0000 C.3     1  UNL1        0.1266
     15 C           3.4030   -2.0950    0.0000 C.3     1  UNL1        0.1126
     16 C           5.1350   -2.0950    0.0000 C.3     1  UNL1        0.1126
     17 C           3.4030   -3.0950    0.0000 C.3     1  UNL1        0.1118
     18 C           5.1350   -3.0950    0.0000 C.3     1  UNL1        0.1118
     19 C           4.2690   -3.5950    0.0000 C.3     1  UNL1        0.1118
     20 C           6.0010    1.4050    0.0000 C.3     1  UNL1        0.0882
     21 C           6.8671    1.9050    0.0000 C.3     1  UNL1        0.1130
     22 C           6.8671    2.9050    0.0000 C.3     1  UNL1        0.1204
     23 C           7.7331    4.4050    0.0000 C.2     1  UNL1        0.3040
     24 C           8.5991    4.9050    0.0000 C.3     1  UNL1        0.0332
     25 H           4.8059   -1.2850    0.0000 H       1  UNL1        0.0655
     26 H           3.4030   -1.4750    0.0000 H       1  UNL1        0.0647
     27 H           5.6720   -2.4050    0.0000 H       1  UNL1        0.0647
     28 H           3.4030   -3.7150    0.0000 H       1  UNL1        0.0647
     29 H           5.1350   -3.7150    0.0000 H       1  UNL1        0.0647
     30 H           3.7320   -3.9050    0.0000 H       1  UNL1        0.0647
     31 H           2.0000   -1.9050    0.0000 H       1  UNL1        0.2100
     32 H           6.5380   -1.9050    0.0000 H       1  UNL1        0.2100
     33 H           2.5369   -4.2150    0.0000 H       1  UNL1        0.2100
     34 H           6.0010   -4.2150    0.0000 H       1  UNL1        0.2100
     35 H           3.7320   -4.9050    0.0000 H       1  UNL1        0.2100
     36 H           5.7890    1.9876    0.0000 H       1  UNL1        0.0592
     37 H           5.3905    1.2973    0.0000 H       1  UNL1        0.0592
     38 H           4.0150    0.7710    0.0000 H       1  UNL1        0.2220
     39 H           7.4040    2.2150    0.0000 H       1  UNL1        0.0650
     40 H           6.6550    3.4876    0.0000 H       1  UNL1        0.0724
     41 H           6.2565    2.7973    0.0000 H       1  UNL1        0.0724
     42 H           8.2700    1.7150    0.0000 H       1  UNL1        0.2100
     43 H           8.9091    4.3681    0.0000 H       1  UNL1        0.0342
     44 H           9.1360    5.2150    0.0000 H       1  UNL1        0.0342
     45 H           8.2891    5.4419    0.0000 H       1  UNL1        0.0342
@<TRIPOS>BOND
     1     1     2    1
     2     1     8    1
     3     1     9    1
     4     1    10    2
     5     2    14    1
     6    15     3    1
     7     3    31    1
     8    16     4    1
     9     4    32    1
    10    17     5    1
    11     5    33    1
    12    18     6    1
    13     6    34    1
    14     7    19    1
    15     7    35    1
    16     8    20    1
    17     9    38    1
    18    21    11    1
    19    11    42    1
    20    12    22    1
    21    12    23    1
    22    13    23    2
    23    14    15    1
    24    14    16    1
    25    14    25    1
    26    15    17    1
    27    15    26    1
    28    16    18    1
    29    16    27    1
    30    17    19    1
    31    17    28    1
    32    18    19    1
    33    18    29    1
    34    19    30    1
    35    20    21    1
    36    20    36    1
    37    20    37    1
    38    21    22    1
    39    21    39    1
    40    22    40    1
    41    22    41    1
    42    23    24    1
    43    24    43    1
    44    24    44    1
    45    24    45    1
