@<TRIPOS>MOLECULE
IMPHY009083
 45 48 0 0 0
SMALL
GASTEIGER

@<TRIPOS>ATOM
      1 O           3.5836   -3.4354    0.0000 O.3     1  UNL1       -0.4877
      2 O           5.3798   -0.5891    0.0000 O.3     1  UNL1       -0.4826
      3 O           7.1279   -3.6306    0.0000 O.3     1  UNL1       -0.5058
      4 O           8.0321   -2.1338    0.0000 O.2     1  UNL1       -0.2917
      5 O           6.2624    3.9386    0.0000 O.3     1  UNL1       -0.5068
      6 C           3.5836   -1.8259    0.0000 C.3     1  UNL1        0.0337
      7 C           3.0000   -2.6306    0.0000 C.3     1  UNL1        0.1067
      8 C           4.5298   -2.1306    0.0000 C.ar    1  UNL1        0.0459
      9 C           4.5298   -3.1306    0.0000 C.ar    1  UNL1        0.1317
     10 C           5.3958   -1.6306    0.0000 C.ar    1  UNL1        0.1427
     11 C           2.7736   -1.2395    0.0000 C.3     1  UNL1       -0.0522
     12 C           3.8910   -0.8743    0.0000 C.3     1  UNL1       -0.0522
     13 C           2.0000   -2.6306    0.0000 C.3     1  UNL1       -0.0270
     14 C           6.2619   -2.1306    0.0000 C.ar    1  UNL1        0.1009
     15 C           6.2778   -0.0614    0.0000 C.3     1  UNL1        0.1322
     16 C           5.3958   -3.6306    0.0000 C.ar    1  UNL1        0.0228
     17 C           7.1799   -0.5822    0.0000 C.3     1  UNL1        0.0520
     18 C           6.2619   -3.1306    0.0000 C.ar    1  UNL1        0.1343
     19 C           7.1719   -1.6238    0.0000 C.2     1  UNL1        0.1740
     20 C           6.2740    0.9386    0.0000 C.ar    1  UNL1       -0.0067
     21 C           7.1381    1.4419    0.0000 C.ar    1  UNL1       -0.0516
     22 C           5.4060    1.4353    0.0000 C.ar    1  UNL1       -0.0516
     23 C           7.1342    2.4419    0.0000 C.ar    1  UNL1       -0.0198
     24 C           5.4022    2.4353    0.0000 C.ar    1  UNL1       -0.0198
     25 C           6.2663    2.9386    0.0000 C.ar    1  UNL1        0.1169
     26 H           2.7183   -3.1830    0.0000 H       1  UNL1        0.0739
     27 H           3.1371   -0.7373    0.0000 H       1  UNL1        0.0239
     28 H           2.2714   -0.8760    0.0000 H       1  UNL1        0.0239
     29 H           2.4100   -1.7418    0.0000 H       1  UNL1        0.0239
     30 H           4.4810   -1.0649    0.0000 H       1  UNL1        0.0239
     31 H           4.0816   -0.2843    0.0000 H       1  UNL1        0.0239
     32 H           3.3010   -0.6838    0.0000 H       1  UNL1        0.0239
     33 H           2.0000   -2.0106    0.0000 H       1  UNL1        0.0265
     34 H           1.3800   -2.6306    0.0000 H       1  UNL1        0.0265
     35 H           2.0000   -3.2506    0.0000 H       1  UNL1        0.0265
     36 H           6.8142    0.2496    0.0000 H       1  UNL1        0.0789
     37 H           5.3958   -4.2506    0.0000 H       1  UNL1        0.0691
     38 H           7.7899   -0.6930    0.0000 H       1  UNL1        0.0385
     39 H           7.3935   -0.0001    0.0000 H       1  UNL1        0.0385
     40 H           7.1279   -4.2506    0.0000 H       1  UNL1        0.2922
     41 H           7.6762    1.1340    0.0000 H       1  UNL1        0.0623
     42 H           4.8703    1.1232    0.0000 H       1  UNL1        0.0623
     43 H           7.6700    2.7540    0.0000 H       1  UNL1        0.0654
     44 H           4.8640    2.7432    0.0000 H       1  UNL1        0.0654
     45 H           6.7982    4.2506    0.0000 H       1  UNL1        0.2921
@<TRIPOS>BOND
     1     1     7    1
     2     1     9    1
     3     2    10    1
     4     2    15    1
     5     3    18    1
     6     3    40    1
     7     4    19    2
     8     5    25    1
     9     5    45    1
    10     6     7    1
    11     6     8    1
    12     6    11    1
    13     6    12    1
    14     7    13    1
    15     7    26    1
    16     8     9   ar
    17     8    10   ar
    18     9    16   ar
    19    10    14   ar
    20    11    27    1
    21    11    28    1
    22    11    29    1
    23    12    30    1
    24    12    31    1
    25    12    32    1
    26    13    33    1
    27    13    34    1
    28    13    35    1
    29    14    18   ar
    30    14    19    1
    31    15    17    1
    32    15    20    1
    33    15    36    1
    34    16    18   ar
    35    16    37    1
    36    17    19    1
    37    17    38    1
    38    17    39    1
    39    20    21   ar
    40    20    22   ar
    41    21    23   ar
    42    21    41    1
    43    22    24   ar
    44    22    42    1
    45    23    25   ar
    46    23    43    1
    47    24    25   ar
    48    24    44    1
