@<TRIPOS>MOLECULE
IMPHY011192
 111 113 0 0 0
SMALL
GASTEIGER

@<TRIPOS>ATOM
      1 O          12.2311    0.2400    0.0000 O.3     1  UNL1       -0.3683
      2 O          18.1886    1.8268    0.0000 O.3     1  UNL1       -0.3708
      3 O          14.1991   -0.4594    0.0000 O.3     1  UNL1       -0.3892
      4 O          16.2206    2.5261    0.0000 O.3     1  UNL1       -0.3892
      5 O          10.2631   -0.4594    0.0000 O.3     1  UNL1       -0.3892
      6 O           6.8747    0.2608    0.0000 O.3     1  UNL1       -0.3918
      7 O          28.9467   -1.2197    0.0000 O.3     1  UNL1       -0.4542
      8 O          28.8535    0.5599    0.0000 O.2     1  UNL1       -0.2453
      9 C          13.0401    0.8278    0.0000 C.3     1  UNL1        0.0850
     10 C          17.3796    1.2390    0.0000 C.3     1  UNL1        0.0849
     11 C          11.4221    0.8278    0.0000 C.3     1  UNL1        0.0850
     12 C          12.7311    1.7788    0.0000 C.3     1  UNL1       -0.0217
     13 C          13.9912    0.5187    0.0000 C.3     1  UNL1        0.0814
     14 C          11.7311    1.7788    0.0000 C.3     1  UNL1       -0.0217
     15 C          16.4285    1.5480    0.0000 C.3     1  UNL1        0.0814
     16 C          18.9976    1.2390    0.0000 C.3     1  UNL1        0.0592
     17 C          17.6886    0.2879    0.0000 C.3     1  UNL1       -0.0218
     18 C          14.7343    1.1879    0.0000 C.3     1  UNL1       -0.0220
     19 C          18.6886    0.2879    0.0000 C.3     1  UNL1       -0.0242
     20 C          15.6854    0.8789    0.0000 C.3     1  UNL1       -0.0220
     21 C          10.4710    0.5187    0.0000 C.3     1  UNL1        0.0813
     22 C          19.9486    1.5480    0.0000 C.3     1  UNL1       -0.0266
     23 C           9.7279    1.1879    0.0000 C.3     1  UNL1       -0.0243
     24 C          20.6918    0.8789    0.0000 C.3     1  UNL1       -0.0507
     25 C           8.7768    0.8789    0.0000 C.3     1  UNL1       -0.0483
     26 C          21.6428    1.1879    0.0000 C.3     1  UNL1       -0.0530
     27 C           8.0337    1.5480    0.0000 C.3     1  UNL1       -0.0268
     28 C          22.3860    0.5187    0.0000 C.3     1  UNL1       -0.0531
     29 C           7.0826    1.2390    0.0000 C.3     1  UNL1        0.0553
     30 C          23.3370    0.8278    0.0000 C.3     1  UNL1       -0.0531
     31 C           6.3395    1.9081    0.0000 C.3     1  UNL1       -0.0269
     32 C          24.0802    0.1586    0.0000 C.3     1  UNL1       -0.0530
     33 C           5.3884    1.5991    0.0000 C.3     1  UNL1       -0.0507
     34 C          25.0312    0.4676    0.0000 C.3     1  UNL1       -0.0528
     35 C           4.6453    2.2682    0.0000 C.3     1  UNL1       -0.0530
     36 C          25.7744   -0.2015    0.0000 C.3     1  UNL1       -0.0488
     37 C           3.6942    1.9592    0.0000 C.3     1  UNL1       -0.0533
     38 C          26.7255    0.1075    0.0000 C.3     1  UNL1       -0.0211
     39 C           2.9511    2.6283    0.0000 C.3     1  UNL1       -0.0559
     40 C          27.4686   -0.5616    0.0000 C.2     1  UNL1        0.0361
     41 C           2.0000    2.3193    0.0000 C.3     1  UNL1       -0.0653
     42 C          27.3641   -1.5561    0.0000 C.2     1  UNL1       -0.0343
     43 C          28.2776   -1.9628    0.0000 C.3     1  UNL1        0.1195
     44 C          28.4467   -0.3537    0.0000 C.2     1  UNL1        0.3355
     45 C          28.4855   -2.9410    0.0000 C.3     1  UNL1       -0.0240
     46 H          13.1731   -0.0118    0.0000 H       1  UNL1        0.0622
     47 H          17.2466    2.0785    0.0000 H       1  UNL1        0.0622
     48 H          11.2891   -0.0118    0.0000 H       1  UNL1        0.0622
     49 H          13.3375    1.9077    0.0000 H       1  UNL1        0.0292
     50 H          12.6663    2.3954    0.0000 H       1  UNL1        0.0292
     51 H          14.5808    0.3272    0.0000 H       1  UNL1        0.0619
     52 H          11.7959    2.3954    0.0000 H       1  UNL1        0.0292
     53 H          11.1246    1.9077    0.0000 H       1  UNL1        0.0292
     54 H          15.8388    1.7396    0.0000 H       1  UNL1        0.0619
     55 H          19.0946    1.8513    0.0000 H       1  UNL1        0.0596
     56 H          17.0821    0.1590    0.0000 H       1  UNL1        0.0292
     57 H          17.7534   -0.3287    0.0000 H       1  UNL1        0.0292
     58 H          15.0254    1.7353    0.0000 H       1  UNL1        0.0292
     59 H          14.2457    1.5696    0.0000 H       1  UNL1        0.0292
     60 H          18.6238   -0.3287    0.0000 H       1  UNL1        0.0291
     61 H          19.2950    0.1590    0.0000 H       1  UNL1        0.0291
     62 H          15.3943    0.3314    0.0000 H       1  UNL1        0.0292
     63 H          16.1739    0.4972    0.0000 H       1  UNL1        0.0292
     64 H           9.8814    0.3272    0.0000 H       1  UNL1        0.0619
     65 H          20.4372    1.9297    0.0000 H       1  UNL1        0.0290
     66 H          19.6576    2.0954    0.0000 H       1  UNL1        0.0290
     67 H          10.2164    1.5696    0.0000 H       1  UNL1        0.0291
     68 H           9.4368    1.7353    0.0000 H       1  UNL1        0.0291
     69 H          20.2032    0.4972    0.0000 H       1  UNL1        0.0266
     70 H          20.9829    0.3314    0.0000 H       1  UNL1        0.0266
     71 H           8.2882    0.4972    0.0000 H       1  UNL1        0.0267
     72 H           9.0679    0.3314    0.0000 H       1  UNL1        0.0267
     73 H          14.7887   -0.6510    0.0000 H       1  UNL1        0.2099
     74 H          22.1314    1.5696    0.0000 H       1  UNL1        0.0265
     75 H          21.3518    1.7353    0.0000 H       1  UNL1        0.0265
     76 H          16.6813    2.9410    0.0000 H       1  UNL1        0.2099
     77 H           8.5222    1.9297    0.0000 H       1  UNL1        0.0290
     78 H           7.7426    2.0954    0.0000 H       1  UNL1        0.0290
     79 H           9.6734   -0.6510    0.0000 H       1  UNL1        0.2099
     80 H          21.8974    0.1370    0.0000 H       1  UNL1        0.0265
     81 H          22.6771   -0.0287    0.0000 H       1  UNL1        0.0265
     82 H           6.4930    1.0474    0.0000 H       1  UNL1        0.0593
     83 H          23.8256    1.2095    0.0000 H       1  UNL1        0.0265
     84 H          23.0460    1.3752    0.0000 H       1  UNL1        0.0265
     85 H           6.8280    2.2898    0.0000 H       1  UNL1        0.0290
     86 H           6.0484    2.4555    0.0000 H       1  UNL1        0.0290
     87 H          23.5916   -0.2231    0.0000 H       1  UNL1        0.0265
     88 H          24.3713   -0.3888    0.0000 H       1  UNL1        0.0265
     89 H           4.8998    1.2174    0.0000 H       1  UNL1        0.0266
     90 H           5.6795    1.0517    0.0000 H       1  UNL1        0.0266
     91 H          25.5198    0.8494    0.0000 H       1  UNL1        0.0265
     92 H          24.7402    1.0151    0.0000 H       1  UNL1        0.0265
     93 H           5.1338    2.6499    0.0000 H       1  UNL1        0.0265
     94 H           4.3542    2.8157    0.0000 H       1  UNL1        0.0265
     95 H           6.2850    0.0692    0.0000 H       1  UNL1        0.2098
     96 H          25.2858   -0.5832    0.0000 H       1  UNL1        0.0268
     97 H          26.0655   -0.7489    0.0000 H       1  UNL1        0.0268
     98 H           3.2056    1.5775    0.0000 H       1  UNL1        0.0265
     99 H           3.9853    1.4118    0.0000 H       1  UNL1        0.0265
    100 H          27.2140    0.4892    0.0000 H       1  UNL1        0.0315
    101 H          26.4344    0.6550    0.0000 H       1  UNL1        0.0315
    102 H           3.4396    3.0100    0.0000 H       1  UNL1        0.0263
    103 H           2.6600    3.1758    0.0000 H       1  UNL1        0.0263
    104 H           1.8084    2.9090    0.0000 H       1  UNL1        0.0230
    105 H           1.4103    2.1277    0.0000 H       1  UNL1        0.0230
    106 H           2.1916    1.7297    0.0000 H       1  UNL1        0.0230
    107 H          26.8271   -1.8661    0.0000 H       1  UNL1        0.0613
    108 H          28.8765   -2.1233    0.0000 H       1  UNL1        0.0777
    109 H          27.8791   -3.0699    0.0000 H       1  UNL1        0.0268
    110 H          28.6144   -3.5474    0.0000 H       1  UNL1        0.0268
    111 H          29.0920   -2.8121    0.0000 H       1  UNL1        0.0268
@<TRIPOS>BOND
     1     1     9    1
     2     1    11    1
     3     2    10    1
     4     2    16    1
     5    13     3    1
     6     3    73    1
     7    15     4    1
     8     4    76    1
     9    21     5    1
    10     5    79    1
    11    29     6    1
    12     6    95    1
    13     7    43    1
    14     7    44    1
    15     8    44    2
    16     9    12    1
    17     9    13    1
    18     9    46    1
    19    10    15    1
    20    10    17    1
    21    10    47    1
    22    11    14    1
    23    11    21    1
    24    11    48    1
    25    12    14    1
    26    12    49    1
    27    12    50    1
    28    13    18    1
    29    13    51    1
    30    14    52    1
    31    14    53    1
    32    15    20    1
    33    15    54    1
    34    16    19    1
    35    16    22    1
    36    16    55    1
    37    17    19    1
    38    17    56    1
    39    17    57    1
    40    18    20    1
    41    18    58    1
    42    18    59    1
    43    19    60    1
    44    19    61    1
    45    20    62    1
    46    20    63    1
    47    21    23    1
    48    21    64    1
    49    22    24    1
    50    22    65    1
    51    22    66    1
    52    23    25    1
    53    23    67    1
    54    23    68    1
    55    24    26    1
    56    24    69    1
    57    24    70    1
    58    25    27    1
    59    25    71    1
    60    25    72    1
    61    26    28    1
    62    26    74    1
    63    26    75    1
    64    27    29    1
    65    27    77    1
    66    27    78    1
    67    28    30    1
    68    28    80    1
    69    28    81    1
    70    29    31    1
    71    29    82    1
    72    30    32    1
    73    30    83    1
    74    30    84    1
    75    31    33    1
    76    31    85    1
    77    31    86    1
    78    32    34    1
    79    32    87    1
    80    32    88    1
    81    33    35    1
    82    33    89    1
    83    33    90    1
    84    34    36    1
    85    34    91    1
    86    34    92    1
    87    35    37    1
    88    35    93    1
    89    35    94    1
    90    36    38    1
    91    36    96    1
    92    36    97    1
    93    37    39    1
    94    37    98    1
    95    37    99    1
    96    38    40    1
    97    38   100    1
    98    38   101    1
    99    39    41    1
   100    39   102    1
   101    39   103    1
   102    40    42    2
   103    40    44    1
   104    41   104    1
   105    41   105    1
   106    41   106    1
   107    42    43    1
   108    42   107    1
   109    43    45    1
   110    43   108    1
   111    45   109    1
   112    45   110    1
   113    45   111    1
