@<TRIPOS>MOLECULE
IMPHY005663
 43 43 0 0 0
SMALL
GASTEIGER

@<TRIPOS>ATOM
      1 O           2.8660    0.5000    0.0000 O.3     1  UNL1       -0.5062
      2 C           4.5981    1.5000    0.0000 C.3     1  UNL1       -0.0092
      3 C           2.8660   -1.5000    0.0000 C.3     1  UNL1       -0.0092
      4 C           4.5981    0.5000    0.0000 C.ar    1  UNL1       -0.0000
      5 C           3.7320   -1.0000    0.0000 C.ar    1  UNL1       -0.0000
      6 C           3.7320    0.0000    0.0000 C.ar    1  UNL1        0.1242
      7 C           5.4641    0.0000    0.0000 C.ar    1  UNL1       -0.0514
      8 C           4.5981   -1.5000    0.0000 C.ar    1  UNL1       -0.0514
      9 C           5.4641   -1.0000    0.0000 C.ar    1  UNL1       -0.0468
     10 C           4.5981    2.5000    0.0000 C.3     1  UNL1       -0.0559
     11 C           5.5981    1.5000    0.0000 C.3     1  UNL1       -0.0559
     12 C           3.5981    1.5000    0.0000 C.3     1  UNL1       -0.0559
     13 C           2.0000   -2.0000    0.0000 C.3     1  UNL1       -0.0559
     14 C           3.3660   -2.3660    0.0000 C.3     1  UNL1       -0.0559
     15 C           2.3660   -0.6340    0.0000 C.3     1  UNL1       -0.0559
     16 C           6.3301   -1.5000    0.0000 C.3     1  UNL1       -0.0305
     17 C           6.3301   -2.5000    0.0000 C.3     1  UNL1       -0.0613
     18 H           6.0010    0.3100    0.0000 H       1  UNL1        0.0624
     19 H           4.5981   -2.1200    0.0000 H       1  UNL1        0.0624
     20 H           3.5981    2.1200    0.0000 H       1  UNL1        0.0238
     21 H           2.9781    1.5000    0.0000 H       1  UNL1        0.0238
     22 H           3.5981    0.8800    0.0000 H       1  UNL1        0.0238
     23 H           5.5981    0.8800    0.0000 H       1  UNL1        0.0238
     24 H           6.2181    1.5000    0.0000 H       1  UNL1        0.0238
     25 H           5.5981    2.1200    0.0000 H       1  UNL1        0.0238
     26 H           5.2181    2.5000    0.0000 H       1  UNL1        0.0238
     27 H           4.5981    3.1200    0.0000 H       1  UNL1        0.0238
     28 H           3.9781    2.5000    0.0000 H       1  UNL1        0.0238
     29 H           2.9030   -0.3240    0.0000 H       1  UNL1        0.0238
     30 H           2.0560   -0.0970    0.0000 H       1  UNL1        0.0238
     31 H           1.8291   -0.9440    0.0000 H       1  UNL1        0.0238
     32 H           2.8291   -2.6760    0.0000 H       1  UNL1        0.0238
     33 H           3.6760   -2.9030    0.0000 H       1  UNL1        0.0238
     34 H           3.9030   -2.0560    0.0000 H       1  UNL1        0.0238
     35 H           1.6900   -1.4631    0.0000 H       1  UNL1        0.0238
     36 H           1.4631   -2.3100    0.0000 H       1  UNL1        0.0238
     37 H           2.3100   -2.5369    0.0000 H       1  UNL1        0.0238
     38 H           6.9407   -1.6077    0.0000 H       1  UNL1        0.0311
     39 H           6.5422   -0.9174    0.0000 H       1  UNL1        0.0311
     40 H           2.8660    1.1200    0.0000 H       1  UNL1        0.2922
     41 H           5.7101   -2.5000    0.0000 H       1  UNL1        0.0233
     42 H           6.3301   -3.1200    0.0000 H       1  UNL1        0.0233
     43 H           6.9501   -2.5000    0.0000 H       1  UNL1        0.0233
@<TRIPOS>BOND
     1     1     6    1
     2     1    40    1
     3     2     4    1
     4     2    10    1
     5     2    11    1
     6     2    12    1
     7     3     5    1
     8     3    13    1
     9     3    14    1
    10     3    15    1
    11     4     6   ar
    12     4     7   ar
    13     5     6   ar
    14     5     8   ar
    15     7     9   ar
    16     7    18    1
    17     8     9   ar
    18     8    19    1
    19     9    16    1
    20    10    26    1
    21    10    27    1
    22    10    28    1
    23    11    23    1
    24    11    24    1
    25    11    25    1
    26    12    20    1
    27    12    21    1
    28    12    22    1
    29    13    35    1
    30    13    36    1
    31    13    37    1
    32    14    32    1
    33    14    33    1
    34    14    34    1
    35    15    29    1
    36    15    30    1
    37    15    31    1
    38    16    17    1
    39    16    38    1
    40    16    39    1
    41    17    41    1
    42    17    42    1
    43    17    43    1
