@<TRIPOS>MOLECULE
IMPHY000348
 28 28 0 0 0
SMALL
GASTEIGER

@<TRIPOS>ATOM
      1 O           2.8660    0.4050    0.0000 O.3     1  UNL1       -0.4947
      2 O           6.3301   -1.5950    0.0000 O.3     1  UNL1       -0.4914
      3 O           4.5981   -2.5950    0.0000 O.3     1  UNL1       -0.5032
      4 C           4.5981    0.4050    0.0000 C.ar    1  UNL1        0.0017
      5 C           3.7320   -0.0950    0.0000 C.ar    1  UNL1        0.1272
      6 C           4.5981    1.4050    0.0000 C.3     1  UNL1       -0.0062
      7 C           5.4641   -0.0950    0.0000 C.ar    1  UNL1       -0.0094
      8 C           5.4641   -1.0950    0.0000 C.ar    1  UNL1        0.1618
      9 C           3.7320   -1.0950    0.0000 C.ar    1  UNL1        0.0255
     10 C           4.5981   -1.5950    0.0000 C.ar    1  UNL1        0.1620
     11 C           5.4641    1.9050    0.0000 C.2     1  UNL1       -0.0867
     12 C           2.0000   -0.0950    0.0000 C.3     1  UNL1        0.0788
     13 C           7.1962   -1.0950    0.0000 C.3     1  UNL1        0.0790
     14 C           5.4641    2.9050    0.0000 C.2     1  UNL1       -0.1023
     15 H           4.3860    1.9876    0.0000 H       1  UNL1        0.0357
     16 H           3.9875    1.2973    0.0000 H       1  UNL1        0.0357
     17 H           6.0010    0.2150    0.0000 H       1  UNL1        0.0659
     18 H           3.1951   -1.4050    0.0000 H       1  UNL1        0.0692
     19 H           6.0010    1.5950    0.0000 H       1  UNL1        0.0570
     20 H           1.6900    0.4419    0.0000 H       1  UNL1        0.0660
     21 H           1.4631   -0.4050    0.0000 H       1  UNL1        0.0660
     22 H           2.3100   -0.6319    0.0000 H       1  UNL1        0.0660
     23 H           4.0611   -2.9050    0.0000 H       1  UNL1        0.2923
     24 H           7.5062   -1.6319    0.0000 H       1  UNL1        0.0660
     25 H           7.7331   -0.7850    0.0000 H       1  UNL1        0.0660
     26 H           6.8862   -0.5581    0.0000 H       1  UNL1        0.0660
     27 H           6.0010    3.2150    0.0000 H       1  UNL1        0.0532
     28 H           4.9272    3.2150    0.0000 H       1  UNL1        0.0532
@<TRIPOS>BOND
     1     1     5    1
     2     1    12    1
     3     2     8    1
     4     2    13    1
     5     3    10    1
     6     3    23    1
     7     4     5   ar
     8     4     6    1
     9     4     7   ar
    10     5     9   ar
    11     6    11    1
    12     6    15    1
    13     6    16    1
    14     7     8   ar
    15     7    17    1
    16     8    10   ar
    17     9    10   ar
    18     9    18    1
    19    11    14    2
    20    11    19    1
    21    12    20    1
    22    12    21    1
    23    12    22    1
    24    13    24    1
    25    13    25    1
    26    13    26    1
    27    14    27    1
    28    14    28    1
