@<TRIPOS>MOLECULE
IMPHY000377
 48 48 0 0 0
SMALL
GASTEIGER

@<TRIPOS>ATOM
      1 S           6.0010   -0.2500    0.0000 S.3     1  UNL1       -0.0727
      2 S           8.5991    1.2500    0.0000 S.O2    1  UNL1        0.2709
      3 O           4.2690   -0.2500    0.0000 O.3     1  UNL1       -0.3549
      4 O           4.2690   -3.2500    0.0000 O.3     1  UNL1       -0.3865
      5 O           2.5369   -2.2500    0.0000 O.3     1  UNL1       -0.3865
      6 O           6.0010   -2.2500    0.0000 O.3     1  UNL1       -0.3857
      7 O           2.5369    0.7500    0.0000 O.3     1  UNL1       -0.3924
      8 O           5.1350    3.2500    0.0000 O.3     1  UNL1       -0.3885
      9 O           7.7331    0.7500    0.0000 O.2     1  UNL1       -0.2068
     10 O           8.0991    2.1160    0.0000 O.3     1  UNL1       -0.2209
     11 O           9.4651    1.7500    0.0000 O.2     1  UNL1       -0.1060
     12 O           9.0991    0.3840    0.0000 O.2     1  UNL1       -0.1060
     13 N           6.8671    1.2500    0.0000 N.2     1  UNL1       -0.0482
     14 C           4.2690   -2.2500    0.0000 C.3     1  UNL1        0.1126
     15 C           3.4030   -1.7500    0.0000 C.3     1  UNL1        0.1118
     16 C           5.1350   -1.7500    0.0000 C.3     1  UNL1        0.1192
     17 C           3.4030   -0.7500    0.0000 C.3     1  UNL1        0.1115
     18 C           5.1350   -0.7500    0.0000 C.3     1  UNL1        0.1384
     19 C           2.5369   -0.2500    0.0000 C.3     1  UNL1        0.0730
     20 C           5.1350    2.2500    0.0000 C.3     1  UNL1        0.0690
     21 C           5.1350    1.2500    0.0000 C.3     1  UNL1        0.0277
     22 C           6.0010    0.7500    0.0000 C.2     1  UNL1        0.1209
     23 C           4.1350    2.2500    0.0000 C.3     1  UNL1       -0.0267
     24 C           6.1350    2.2500    0.0000 C.3     1  UNL1       -0.0357
     25 C           3.6350    1.3840    0.0000 C.3     1  UNL1       -0.0627
     26 H           4.8059   -2.5600    0.0000 H       1  UNL1        0.0647
     27 H           3.4030   -2.3700    0.0000 H       1  UNL1        0.0647
     28 H           5.6720   -1.4400    0.0000 H       1  UNL1        0.0655
     29 H           3.4030   -0.1300    0.0000 H       1  UNL1        0.0646
     30 H           5.1350   -0.1300    0.0000 H       1  UNL1        0.0743
     31 H           1.9264   -0.1423    0.0000 H       1  UNL1        0.0584
     32 H           2.3249   -0.8326    0.0000 H       1  UNL1        0.0584
     33 H           4.5244    1.3577    0.0000 H       1  UNL1        0.0362
     34 H           4.9230    0.6674    0.0000 H       1  UNL1        0.0362
     35 H           3.7320   -3.5600    0.0000 H       1  UNL1        0.2100
     36 H           2.0000   -1.9400    0.0000 H       1  UNL1        0.2100
     37 H           6.5380   -1.9400    0.0000 H       1  UNL1        0.2100
     38 H           4.2427    2.8606    0.0000 H       1  UNL1        0.0290
     39 H           3.5524    2.4620    0.0000 H       1  UNL1        0.0290
     40 H           6.1350    1.6300    0.0000 H       1  UNL1        0.0257
     41 H           6.7550    2.2500    0.0000 H       1  UNL1        0.0257
     42 H           6.1350    2.8700    0.0000 H       1  UNL1        0.0257
     43 H           2.0000    1.0600    0.0000 H       1  UNL1        0.2095
     44 H           3.0981    1.6940    0.0000 H       1  UNL1        0.0231
     45 H           3.3250    0.8470    0.0000 H       1  UNL1        0.0231
     46 H           4.1720    1.0740    0.0000 H       1  UNL1        0.0231
     47 H           4.5981    3.5600    0.0000 H       1  UNL1        0.2102
     48 H           8.4091    2.6530    0.0000 H       1  UNL1        0.2480
@<TRIPOS>BOND
     1    18     1    1
     2     1    22    1
     3     2     9    1
     4     2    10    1
     5     2    11    2
     6     2    12    2
     7     3    17    1
     8     3    18    1
     9    14     4    1
    10     4    35    1
    11    15     5    1
    12     5    36    1
    13    16     6    1
    14     6    37    1
    15     7    19    1
    16     7    43    1
    17    20     8    1
    18     8    47    1
    19     9    13    1
    20    10    48    1
    21    13    22    2
    22    14    15    1
    23    14    16    1
    24    14    26    1
    25    15    17    1
    26    15    27    1
    27    16    18    1
    28    16    28    1
    29    17    19    1
    30    17    29    1
    31    18    30    1
    32    19    31    1
    33    19    32    1
    34    20    21    1
    35    20    23    1
    36    20    24    1
    37    21    22    1
    38    21    33    1
    39    21    34    1
    40    23    25    1
    41    23    38    1
    42    23    39    1
    43    24    40    1
    44    24    41    1
    45    24    42    1
    46    25    44    1
    47    25    45    1
    48    25    46    1
