@<TRIPOS>MOLECULE
IMPHY000707
 88 93 0 0 0
SMALL
GASTEIGER

@<TRIPOS>ATOM
      1 O           8.1954   -0.6180    0.0000 O.3     1  UNL1       -0.3757
      2 O           8.5657   -1.8449    0.0000 O.2     1  UNL1       -0.2933
      3 O           7.4697   -1.1377    0.0000 O.3     1  UNL1       -0.4493
      4 O           6.8242   -0.3739    0.0000 O.2     1  UNL1       -0.2505
      5 O           6.0184    2.9619    0.0000 O.3     1  UNL1       -0.5033
      6 O           5.3854    1.0139    0.0000 O.3     1  UNL1       -0.5033
      7 O          14.2177   -0.3795    0.0000 O.3     1  UNL1       -0.4465
      8 O           4.8558   -0.7282    0.0000 O.3     1  UNL1       -0.4654
      9 O          13.5193   -1.9645    0.0000 O.2     1  UNL1       -0.2456
     10 O           6.1787    0.3898    0.0000 O.2     1  UNL1       -0.2466
     11 O           2.8874   -1.0824    0.0000 O.3     1  UNL1       -0.5033
     12 O          16.1563   -2.1801    0.0000 O.3     1  UNL1       -0.4654
     13 O           2.2100   -2.9642    0.0000 O.3     1  UNL1       -0.5033
     14 O          14.4344   -2.3678    0.0000 O.2     1  UNL1       -0.2466
     15 O          17.9865   -2.9865    0.0000 O.3     1  UNL1       -0.5033
     16 O          19.6000   -1.8047    0.0000 O.3     1  UNL1       -0.5033
     17 C           9.3901    1.6402    0.0000 C.3     1  UNL1        0.0081
     18 C           9.6991    0.6891    0.0000 C.3     1  UNL1        0.0253
     19 C           8.8901    0.1013    0.0000 C.3     1  UNL1        0.1561
     20 C           8.7926   -0.0197    0.0000 C.3     1  UNL1        0.0774
     21 C           9.9313   -1.3672    0.0000 C.3     1  UNL1        0.0589
     22 C           8.3901    1.6402    0.0000 C.ar    1  UNL1       -0.0328
     23 C           8.9830   -0.9362    0.0000 C.2     1  UNL1        0.1778
     24 C           8.0811    0.6891    0.0000 C.ar    1  UNL1       -0.0012
     25 C          10.6571    0.2802    0.0000 C.2     1  UNL1       -0.0730
     26 C          10.7740   -0.7549    0.0000 C.2     1  UNL1       -0.0395
     27 C           7.8084   -0.1968    0.0000 C.2     1  UNL1        0.3126
     28 C           7.7052    2.4249    0.0000 C.ar    1  UNL1       -0.0127
     29 C           7.0657    0.4569    0.0000 C.ar    1  UNL1       -0.0099
     30 C          11.6891   -1.1581    0.0000 C.2     1  UNL1       -0.0514
     31 C           6.6846    2.2162    0.0000 C.ar    1  UNL1        0.1585
     32 C           6.3628    1.2255    0.0000 C.ar    1  UNL1        0.1586
     33 C          12.4959   -0.5672    0.0000 C.2     1  UNL1        0.0228
     34 C           6.4855   -1.3148    0.0000 C.3     1  UNL1        0.2028
     35 C           6.1468   -2.2557    0.0000 C.3     1  UNL1        0.0203
     36 C          13.4110   -0.9704    0.0000 C.2     1  UNL1        0.3327
     37 C           5.8400   -0.5510    0.0000 C.2     1  UNL1        0.3484
     38 C           5.1626   -2.4328    0.0000 C.ar    1  UNL1       -0.0396
     39 C          15.1328   -0.7827    0.0000 C.3     1  UNL1        0.2031
     40 C           4.5171   -1.6690    0.0000 C.ar    1  UNL1       -0.0132
     41 C           4.8239   -3.3737    0.0000 C.ar    1  UNL1       -0.0548
     42 C           4.2103    0.0356    0.0000 C.3     1  UNL1        0.0818
     43 C          15.9396   -0.1918    0.0000 C.3     1  UNL1        0.0203
     44 C           3.5329   -1.8462    0.0000 C.ar    1  UNL1        0.1585
     45 C           3.8397   -3.5508    0.0000 C.ar    1  UNL1       -0.0163
     46 C          15.2412   -1.7768    0.0000 C.2     1  UNL1        0.3485
     47 C           3.1942   -2.7870    0.0000 C.ar    1  UNL1        0.1582
     48 C          16.8547   -0.5950    0.0000 C.ar    1  UNL1       -0.0396
     49 C          16.9630   -1.5892    0.0000 C.ar    1  UNL1       -0.0132
     50 C          17.6614   -0.0041    0.0000 C.ar    1  UNL1       -0.0548
     51 C          16.2646   -3.1742    0.0000 C.3     1  UNL1        0.0818
     52 C          17.8781   -1.9924    0.0000 C.ar    1  UNL1        0.1585
     53 C          18.5765   -0.4074    0.0000 C.ar    1  UNL1       -0.0163
     54 C          18.6849   -1.4015    0.0000 C.ar    1  UNL1        0.1582
     55 H           9.7546    2.1418    0.0000 H       1  UNL1        0.0364
     56 H          10.1567    1.1075    0.0000 H       1  UNL1        0.0385
     57 H           8.3924    0.4538    0.0000 H       1  UNL1        0.0430
     58 H           9.9937   -1.9840    0.0000 H       1  UNL1        0.0435
     59 H          11.1545    0.6504    0.0000 H       1  UNL1        0.0579
     60 H           7.9036    3.0123    0.0000 H       1  UNL1        0.0658
     61 H           8.3664   -1.2140    0.0000 H       1  UNL1        0.2112
     62 H           6.8809   -0.1350    0.0000 H       1  UNL1        0.0659
     63 H          11.7563   -1.7745    0.0000 H       1  UNL1        0.0623
     64 H          12.4287    0.0491    0.0000 H       1  UNL1        0.0689
     65 H           6.6955   -0.7315    0.0000 H       1  UNL1        0.0856
     66 H           6.2122    3.5508    0.0000 H       1  UNL1        0.2923
     67 H           4.9688    1.4730    0.0000 H       1  UNL1        0.2923
     68 H           6.1490   -2.8757    0.0000 H       1  UNL1        0.0355
     69 H           6.7577   -2.3612    0.0000 H       1  UNL1        0.0355
     70 H          15.0656   -0.1664    0.0000 H       1  UNL1        0.0856
     71 H           4.7271   -1.0857    0.0000 H       1  UNL1        0.0658
     72 H           5.2241   -3.8473    0.0000 H       1  UNL1        0.0621
     73 H           4.6839    0.4358    0.0000 H       1  UNL1        0.0661
     74 H           3.8101    0.5092    0.0000 H       1  UNL1        0.0661
     75 H           3.7368   -0.3646    0.0000 H       1  UNL1        0.0661
     76 H          16.2843    0.3235    0.0000 H       1  UNL1        0.0355
     77 H          15.4919    0.2371    0.0000 H       1  UNL1        0.0355
     78 H           3.6297   -4.1342    0.0000 H       1  UNL1        0.0655
     79 H           2.2772   -1.1922    0.0000 H       1  UNL1        0.2923
     80 H           2.0000   -3.5475    0.0000 H       1  UNL1        0.2923
     81 H          16.4628   -1.9555    0.0000 H       1  UNL1        0.0658
     82 H          17.5942    0.6122    0.0000 H       1  UNL1        0.0621
     83 H          15.6483   -3.2414    0.0000 H       1  UNL1        0.0661
     84 H          16.3318   -3.7905    0.0000 H       1  UNL1        0.0661
     85 H          16.8810   -3.1070    0.0000 H       1  UNL1        0.0661
     86 H          19.0767   -0.0410    0.0000 H       1  UNL1        0.0655
     87 H          18.5539   -3.2365    0.0000 H       1  UNL1        0.2923
     88 H          20.1002   -1.4383    0.0000 H       1  UNL1        0.2923
@<TRIPOS>BOND
     1     1    19    1
     2     1    61    1
     3     2    23    2
     4     3    27    1
     5     3    34    1
     6     4    27    2
     7     5    31    1
     8     5    66    1
     9     6    32    1
    10     6    67    1
    11     7    36    1
    12     7    39    1
    13     8    37    1
    14     8    42    1
    15     9    36    2
    16    10    37    2
    17    11    44    1
    18    11    79    1
    19    12    46    1
    20    12    51    1
    21    13    47    1
    22    13    80    1
    23    14    46    2
    24    15    52    1
    25    15    87    1
    26    16    54    1
    27    16    88    1
    28    17    18    1
    29    17    20    1
    30    17    22    1
    31    17    55    1
    32    18    19    1
    33    18    25    1
    34    18    56    1
    35    19    23    1
    36    19    24    1
    37    20    21    1
    38    20    27    1
    39    20    57    1
    40    21    23    1
    41    21    26    1
    42    21    58    1
    43    22    24   ar
    44    22    28   ar
    45    24    29   ar
    46    25    26    2
    47    25    59    1
    48    26    30    1
    49    28    31   ar
    50    28    60    1
    51    29    32   ar
    52    29    62    1
    53    30    33    2
    54    30    63    1
    55    31    32   ar
    56    33    36    1
    57    33    64    1
    58    34    35    1
    59    34    37    1
    60    34    65    1
    61    35    38    1
    62    35    68    1
    63    35    69    1
    64    38    40   ar
    65    38    41   ar
    66    39    43    1
    67    39    46    1
    68    39    70    1
    69    40    44   ar
    70    40    71    1
    71    41    45   ar
    72    41    72    1
    73    42    73    1
    74    42    74    1
    75    42    75    1
    76    43    48    1
    77    43    76    1
    78    43    77    1
    79    44    47   ar
    80    45    47   ar
    81    45    78    1
    82    48    49   ar
    83    48    50   ar
    84    49    52   ar
    85    49    81    1
    86    50    53   ar
    87    50    82    1
    88    51    83    1
    89    51    84    1
    90    51    85    1
    91    52    54   ar
    92    53    54   ar
    93    53    86    1
