@<TRIPOS>MOLECULE
IMPHY001291
 43 47 0 0 0
SMALL
GASTEIGER

@<TRIPOS>ATOM
      1 O           6.3002   -1.1621    0.0000 O.3     1  UNL1       -0.4579
      2 O           8.0819   -0.1517    0.0000 O.3     1  UNL1       -0.3841
      3 O           3.4519   -2.7090    0.0000 O.3     1  UNL1       -0.4526
      4 O           2.0000   -1.8708    0.0000 O.3     1  UNL1       -0.4526
      5 O           8.0321   -1.1821    0.0000 O.2     1  UNL1       -0.2512
      6 N           4.5518    1.8725    0.0000 N.3     1  UNL1       -0.2906
      7 C           5.4178    1.3725    0.0000 C.3     1  UNL1        0.0424
      8 C           5.4178    0.3725    0.0000 C.3     1  UNL1        0.0438
      9 C           6.3117    1.9072    0.0000 C.2     1  UNL1       -0.0520
     10 C           6.3117   -0.1622    0.0000 C.3     1  UNL1        0.1408
     11 C           4.9169    2.7968    0.0000 C.3     1  UNL1        0.0035
     12 C           5.9105    2.8164    0.0000 C.3     1  UNL1       -0.0173
     13 C           4.5518   -0.1275    0.0000 C.ar    1  UNL1       -0.0308
     14 C           3.6857    1.3725    0.0000 C.3     1  UNL1        0.0250
     15 C           7.2178    0.3517    0.0000 C.3     1  UNL1        0.1111
     16 C           3.6857    0.3725    0.0000 C.ar    1  UNL1       -0.0260
     17 C           7.2178    1.3933    0.0000 C.2     1  UNL1       -0.0516
     18 C           4.5678   -1.1690    0.0000 C.ar    1  UNL1       -0.0122
     19 C           2.7757   -0.1344    0.0000 C.ar    1  UNL1       -0.0115
     20 C           3.6698   -1.6968    0.0000 C.ar    1  UNL1        0.1665
     21 C           2.7677   -1.1760    0.0000 C.ar    1  UNL1        0.1665
     22 C           7.1603   -1.6721    0.0000 C.2     1  UNL1        0.3043
     23 C           2.4220   -2.8164    0.0000 C.3     1  UNL1        0.2332
     24 C           7.1488   -2.6720    0.0000 C.3     1  UNL1        0.0332
     25 H           6.1539    0.9475    0.0000 H       1  UNL1        0.0516
     26 H           5.4112   -0.4775    0.0000 H       1  UNL1        0.0404
     27 H           6.8456   -0.4773    0.0000 H       1  UNL1        0.0770
     28 H           4.9863    3.4129    0.0000 H       1  UNL1        0.0430
     29 H           4.3153    2.9467    0.0000 H       1  UNL1        0.0430
     30 H           6.5057    2.9899    0.0000 H       1  UNL1        0.0323
     31 H           5.8168    3.4293    0.0000 H       1  UNL1        0.0323
     32 H           3.4737    1.9551    0.0000 H       1  UNL1        0.0476
     33 H           3.0752    1.2648    0.0000 H       1  UNL1        0.0476
     34 H           7.7553    0.6606    0.0000 H       1  UNL1        0.0675
     35 H           7.7535    1.7054    0.0000 H       1  UNL1        0.0599
     36 H           5.1083   -1.4728    0.0000 H       1  UNL1        0.0658
     37 H           2.2424    0.1818    0.0000 H       1  UNL1        0.0658
     38 H           8.6200    0.1563    0.0000 H       1  UNL1        0.2104
     39 H           1.8324   -3.0081    0.0000 H       1  UNL1        0.1166
     40 H           2.5507   -3.4229    0.0000 H       1  UNL1        0.1166
     41 H           6.5288   -2.6648    0.0000 H       1  UNL1        0.0342
     42 H           7.1416   -3.2920    0.0000 H       1  UNL1        0.0342
     43 H           7.7687   -2.6792    0.0000 H       1  UNL1        0.0342
@<TRIPOS>BOND
     1    10     1    1
     2     1    22    1
     3    15     2    1
     4     2    38    1
     5     3    20    1
     6     3    23    1
     7     4    21    1
     8     4    23    1
     9     5    22    2
    10     6     7    1
    11     6    11    1
    12     6    14    1
    13     7     8    1
    14     7     9    1
    15     7    25    1
    16     8    10    1
    17     8    13    1
    18     8    26    1
    19     9    12    1
    20     9    17    2
    21    10    15    1
    22    10    27    1
    23    11    12    1
    24    11    28    1
    25    11    29    1
    26    12    30    1
    27    12    31    1
    28    13    16   ar
    29    13    18   ar
    30    14    16    1
    31    14    32    1
    32    14    33    1
    33    15    17    1
    34    15    34    1
    35    16    19   ar
    36    17    35    1
    37    18    20   ar
    38    18    36    1
    39    19    21   ar
    40    19    37    1
    41    20    21   ar
    42    22    24    1
    43    23    39    1
    44    23    40    1
    45    24    41    1
    46    24    42    1
    47    24    43    1
