@<TRIPOS>MOLECULE
IMPHY013081
 83 87 0 0 0
SMALL
GASTEIGER

@<TRIPOS>ATOM
      1 O           5.7726   -2.9697    0.0000 O.3     1  UNL1       -0.3910
      2 O           3.2914   -2.7672    0.0000 O.3     1  UNL1       -0.3910
      3 O          11.1246    3.2439    0.0000 O.3     1  UNL1       -0.3908
      4 O           4.5096   -3.3859    0.0000 O.3     1  UNL1       -0.3943
      5 O          11.7572    0.7838    0.0000 O.2     1  UNL1       -0.3004
      6 C           7.5167    0.0995    0.0000 C.3     1  UNL1       -0.0193
      7 C           7.5167    1.0995    0.0000 C.3     1  UNL1       -0.0257
      8 C           6.6507   -0.4005    0.0000 C.3     1  UNL1       -0.0028
      9 C           8.4106    1.6342    0.0000 C.3     1  UNL1       -0.0246
     10 C           9.3167    1.1204    0.0000 C.3     1  UNL1       -0.0211
     11 C           8.4106   -0.4351    0.0000 C.3     1  UNL1       -0.0463
     12 C           5.7847    0.0995    0.0000 C.2     1  UNL1       -0.0631
     13 C           4.8746   -0.4073    0.0000 C.3     1  UNL1       -0.0064
     14 C           4.8666   -1.4489    0.0000 C.3     1  UNL1        0.0521
     15 C           6.6667   -1.4420    0.0000 C.3     1  UNL1       -0.0165
     16 C           9.3167    0.0787    0.0000 C.3     1  UNL1       -0.0482
     17 C           6.6507    1.5995    0.0000 C.3     1  UNL1       -0.0306
     18 C          10.2605    1.6556    0.0000 C.3     1  UNL1        0.0523
     19 C           5.7687   -1.9697    0.0000 C.3     1  UNL1        0.0667
     20 C           8.3856    2.7189    0.0000 C.3     1  UNL1       -0.0447
     21 C           7.8588   -0.8401    0.0000 C.3     1  UNL1       -0.0585
     22 C           5.7847    1.0995    0.0000 C.2     1  UNL1       -0.0836
     23 C           3.9478    0.1568    0.0000 C.3     1  UNL1       -0.0405
     24 C           7.2935   -1.1665    0.0000 C.3     1  UNL1       -0.0552
     25 C           3.9312   -1.9986    0.0000 C.3     1  UNL1        0.0663
     26 C           7.5408    2.1275    0.0000 C.3     1  UNL1       -0.0590
     27 C          10.2605    2.7406    0.0000 C.3     1  UNL1        0.0673
     28 C           9.3167    3.2758    0.0000 C.3     1  UNL1       -0.0254
     29 C           2.9999   -0.3712    0.0000 C.3     1  UNL1       -0.0320
     30 C           2.9916   -1.4561    0.0000 C.3     1  UNL1       -0.0210
     31 C           4.8589   -2.4489    0.0000 C.3     1  UNL1        0.0551
     32 C          10.7572    0.7876    0.0000 C.3     1  UNL1       -0.0504
     33 C          11.2605    1.6517    0.0000 C.2     1  UNL1        0.1289
     34 C           2.0000   -0.3596    0.0000 C.3     1  UNL1       -0.0597
     35 C           2.5100    0.5006    0.0000 C.3     1  UNL1       -0.0597
     36 H           8.0560    0.7937    0.0000 H       1  UNL1        0.0315
     37 H           9.8524    0.8083    0.0000 H       1  UNL1        0.0316
     38 H           8.0060   -0.9049    0.0000 H       1  UNL1        0.0271
     39 H           8.8043   -0.9141    0.0000 H       1  UNL1        0.0271
     40 H           4.8866    0.2126    0.0000 H       1  UNL1        0.0354
     41 H           6.8848   -2.0224    0.0000 H       1  UNL1        0.0299
     42 H           7.2759   -1.3265    0.0000 H       1  UNL1        0.0299
     43 H           9.5258   -0.5050    0.0000 H       1  UNL1        0.0269
     44 H           9.9276    0.1848    0.0000 H       1  UNL1        0.0269
     45 H           7.0492    2.0745    0.0000 H       1  UNL1        0.0310
     46 H           6.2522    2.0745    0.0000 H       1  UNL1        0.0310
     47 H           6.3074   -2.2766    0.0000 H       1  UNL1        0.0601
     48 H           8.1631    3.2976    0.0000 H       1  UNL1        0.0271
     49 H           7.7773    2.5987    0.0000 H       1  UNL1        0.0271
     50 H           7.2762   -1.0522    0.0000 H       1  UNL1        0.0235
     51 H           8.0709   -1.4227    0.0000 H       1  UNL1        0.0235
     52 H           8.4414   -0.6280    0.0000 H       1  UNL1        0.0235
     53 H           5.2477    1.4095    0.0000 H       1  UNL1        0.0572
     54 H           4.3560    0.6234    0.0000 H       1  UNL1        0.0276
     55 H           3.5579    0.6388    0.0000 H       1  UNL1        0.0276
     56 H           6.8185   -1.5650    0.0000 H       1  UNL1        0.0238
     57 H           7.6920   -1.6415    0.0000 H       1  UNL1        0.0238
     58 H           7.7684   -0.7680    0.0000 H       1  UNL1        0.0238
     59 H           4.3325   -2.4713    0.0000 H       1  UNL1        0.0601
     60 H           7.8466    2.6668    0.0000 H       1  UNL1        0.0235
     61 H           7.0015    2.4334    0.0000 H       1  UNL1        0.0235
     62 H           7.2349    1.5882    0.0000 H       1  UNL1        0.0235
     63 H          10.7980    2.4316    0.0000 H       1  UNL1        0.0603
     64 H           9.7103    3.7548    0.0000 H       1  UNL1        0.0290
     65 H           8.9121    3.7456    0.0000 H       1  UNL1        0.0290
     66 H           2.3816   -1.3453    0.0000 H       1  UNL1        0.0295
     67 H           2.7780   -2.0382    0.0000 H       1  UNL1        0.0295
     68 H           5.3066   -2.8778    0.0000 H       1  UNL1        0.0564
     69 H           4.2492   -2.3365    0.0000 H       1  UNL1        0.0564
     70 H          10.2190    0.4797    0.0000 H       1  UNL1        0.0240
     71 H          11.0651    0.2495    0.0000 H       1  UNL1        0.0240
     72 H          11.2953    1.0956    0.0000 H       1  UNL1        0.0240
     73 H          11.5726    2.1875    0.0000 H       1  UNL1        0.1033
     74 H           6.3107   -3.2776    0.0000 H       1  UNL1        0.2098
     75 H           2.0072    0.2603    0.0000 H       1  UNL1        0.0235
     76 H           1.3800   -0.3524    0.0000 H       1  UNL1        0.0235
     77 H           1.9928   -0.9796    0.0000 H       1  UNL1        0.0235
     78 H           3.0505    0.8043    0.0000 H       1  UNL1        0.0235
     79 H           2.2062    1.0411    0.0000 H       1  UNL1        0.0235
     80 H           1.9695    0.1968    0.0000 H       1  UNL1        0.0235
     81 H           2.6804   -2.6619    0.0000 H       1  UNL1        0.2098
     82 H          11.1222    3.8639    0.0000 H       1  UNL1        0.2098
     83 H           4.9045   -3.8639    0.0000 H       1  UNL1        0.2094
@<TRIPOS>BOND
     1     1    19    1
     2     1    74    1
     3     2    25    1
     4     2    81    1
     5     3    27    1
     6     3    82    1
     7     4    31    1
     8     4    83    1
     9     5    33    2
    10     6     7    1
    11     6     8    1
    12     6    11    1
    13     6    21    1
    14     7     9    1
    15     7    17    1
    16     7    36    1
    17     8    12    1
    18     8    15    1
    19     8    24    1
    20     9    10    1
    21     9    20    1
    22     9    26    1
    23    10    16    1
    24    10    18    1
    25    10    37    1
    26    11    16    1
    27    11    38    1
    28    11    39    1
    29    12    13    1
    30    12    22    2
    31    13    14    1
    32    13    23    1
    33    13    40    1
    34    14    19    1
    35    14    25    1
    36    14    31    1
    37    15    19    1
    38    15    41    1
    39    15    42    1
    40    16    43    1
    41    16    44    1
    42    17    22    1
    43    17    45    1
    44    17    46    1
    45    18    27    1
    46    18    32    1
    47    18    33    1
    48    19    47    1
    49    20    28    1
    50    20    48    1
    51    20    49    1
    52    21    50    1
    53    21    51    1
    54    21    52    1
    55    22    53    1
    56    23    29    1
    57    23    54    1
    58    23    55    1
    59    24    56    1
    60    24    57    1
    61    24    58    1
    62    25    30    1
    63    25    59    1
    64    26    60    1
    65    26    61    1
    66    26    62    1
    67    27    28    1
    68    27    63    1
    69    28    64    1
    70    28    65    1
    71    29    30    1
    72    29    34    1
    73    29    35    1
    74    30    66    1
    75    30    67    1
    76    31    68    1
    77    31    69    1
    78    32    70    1
    79    32    71    1
    80    32    72    1
    81    33    73    1
    82    34    75    1
    83    34    76    1
    84    34    77    1
    85    35    78    1
    86    35    79    1
    87    35    80    1
