@<TRIPOS>MOLECULE
IMPHY006075
 68 72 0 0 0
SMALL
GASTEIGER

@<TRIPOS>ATOM
      1 O           3.8114   -3.4812    0.0000 O.3     1  UNL1       -0.3837
      2 O           2.0000   -2.4353    0.0000 O.2     1  UNL1       -0.2944
      3 O          11.0010    2.7614    0.0000 O.2     1  UNL1       -0.5030
      4 O           9.1815    3.7932    0.0000 O.2     1  UNL1       -0.2840
      5 C           5.6610   -0.3830    0.0000 C.3     1  UNL1       -0.0195
      6 C           6.5271   -0.8830    0.0000 C.3     1  UNL1       -0.0043
      7 C           4.7510   -0.8898    0.0000 C.3     1  UNL1       -0.0261
      8 C           4.7430   -1.9314    0.0000 C.3     1  UNL1        0.0042
      9 C           6.5431   -1.9245    0.0000 C.3     1  UNL1       -0.0428
     10 C           5.6610    0.6170    0.0000 C.3     1  UNL1       -0.0455
     11 C           5.6451   -2.4523    0.0000 C.3     1  UNL1       -0.0438
     12 C           7.3931   -0.3830    0.0000 C.2     1  UNL1       -0.0529
     13 C           7.3931    0.6170    0.0000 C.3     1  UNL1        0.0154
     14 C           3.8242   -0.3258    0.0000 C.3     1  UNL1       -0.0397
     15 C           6.5271    1.1170    0.0000 C.3     1  UNL1       -0.0393
     16 C           3.8076   -2.4812    0.0000 C.3     1  UNL1        0.1188
     17 C           4.7950    0.1170    0.0000 C.3     1  UNL1       -0.0585
     18 C           7.3931   -1.3830    0.0000 C.3     1  UNL1       -0.0553
     19 C           2.8763   -0.8537    0.0000 C.3     1  UNL1        0.0176
     20 C           4.7353   -2.9314    0.0000 C.3     1  UNL1       -0.0565
     21 C           2.8680   -1.9387    0.0000 C.2     1  UNL1        0.1649
     22 C           8.2870    1.1517    0.0000 C.2     1  UNL1       -0.0262
     23 C           8.2870   -0.9177    0.0000 C.2     1  UNL1       -0.0606
     24 C           7.3931    1.6170    0.0000 C.3     1  UNL1       -0.0517
     25 C           2.0161   -0.3437    0.0000 C.3     1  UNL1       -0.0556
     26 C           9.1931    0.6378    0.0000 C.2     1  UNL1       -0.0144
     27 C           9.1931   -0.4038    0.0000 C.2     1  UNL1       -0.0539
     28 C           8.2619    2.2364    0.0000 C.2     1  UNL1       -0.0067
     29 C          10.1369    1.1731    0.0000 C.2     1  UNL1        0.0022
     30 C           9.1931    2.7933    0.0000 C.2     1  UNL1        0.2206
     31 C          10.1369    2.2580    0.0000 C.2     1  UNL1        0.1671
     32 C          11.0010    0.6697    0.0000 C.3     1  UNL1       -0.0356
     33 H           5.4822   -1.3233    0.0000 H       1  UNL1        0.0313
     34 H           6.7612   -2.5049    0.0000 H       1  UNL1        0.0274
     35 H           7.1523   -1.8090    0.0000 H       1  UNL1        0.0274
     36 H           5.4490    1.1996    0.0000 H       1  UNL1        0.0271
     37 H           5.0504    0.5093    0.0000 H       1  UNL1        0.0271
     38 H           5.2478   -2.9282    0.0000 H       1  UNL1        0.0272
     39 H           6.0460   -2.9252    0.0000 H       1  UNL1        0.0272
     40 H           4.2324    0.1409    0.0000 H       1  UNL1        0.0275
     41 H           3.4343    0.1563    0.0000 H       1  UNL1        0.0275
     42 H           6.9256    1.5920    0.0000 H       1  UNL1        0.0277
     43 H           6.1285    1.5920    0.0000 H       1  UNL1        0.0277
     44 H           3.2712   -2.7922    0.0000 H       1  UNL1        0.0678
     45 H           5.1050    0.6539    0.0000 H       1  UNL1        0.0235
     46 H           4.2581    0.4270    0.0000 H       1  UNL1        0.0235
     47 H           4.4850   -0.4199    0.0000 H       1  UNL1        0.0235
     48 H           7.0831   -1.9199    0.0000 H       1  UNL1        0.0238
     49 H           7.9300   -1.6930    0.0000 H       1  UNL1        0.0238
     50 H           7.7031   -0.8461    0.0000 H       1  UNL1        0.0238
     51 H           2.3364   -1.1585    0.0000 H       1  UNL1        0.0376
     52 H           4.1153   -2.9266    0.0000 H       1  UNL1        0.0236
     53 H           4.7305   -3.5514    0.0000 H       1  UNL1        0.0236
     54 H           5.3553   -2.9362    0.0000 H       1  UNL1        0.0236
     55 H           8.2799   -1.5376    0.0000 H       1  UNL1        0.0618
     56 H           8.0131    1.6170    0.0000 H       1  UNL1        0.0241
     57 H           7.3931    2.2370    0.0000 H       1  UNL1        0.0241
     58 H           6.7731    1.6170    0.0000 H       1  UNL1        0.0241
     59 H           2.3323    0.1896    0.0000 H       1  UNL1        0.0236
     60 H           1.4828   -0.0275    0.0000 H       1  UNL1        0.0236
     61 H           1.6999   -0.8770    0.0000 H       1  UNL1        0.0236
     62 H           3.2757   -3.7932    0.0000 H       1  UNL1        0.2104
     63 H           9.7288   -0.7159    0.0000 H       1  UNL1        0.0624
     64 H           7.7191    2.5360    0.0000 H       1  UNL1        0.0660
     65 H          10.6889    0.1340    0.0000 H       1  UNL1        0.0279
     66 H          11.5367    0.3577    0.0000 H       1  UNL1        0.0279
     67 H          11.3130    1.2055    0.0000 H       1  UNL1        0.0279
     68 H          10.9986    3.3814    0.0000 H       1  UNL1        0.2923
@<TRIPOS>BOND
     1    16     1    1
     2     1    62    1
     3     2    21    2
     4     3    31    1
     5     3    68    1
     6     4    30    2
     7     5     6    1
     8     5     7    1
     9     5    10    1
    10     5    17    1
    11     6     9    1
    12     6    12    1
    13     6    18    1
    14     7     8    1
    15     7    14    1
    16     7    33    1
    17     8    11    1
    18     8    16    1
    19     8    20    1
    20     9    11    1
    21     9    34    1
    22     9    35    1
    23    10    15    1
    24    10    36    1
    25    10    37    1
    26    11    38    1
    27    11    39    1
    28    12    13    1
    29    12    23    2
    30    13    15    1
    31    13    22    1
    32    13    24    1
    33    14    19    1
    34    14    40    1
    35    14    41    1
    36    15    42    1
    37    15    43    1
    38    16    21    1
    39    16    44    1
    40    17    45    1
    41    17    46    1
    42    17    47    1
    43    18    48    1
    44    18    49    1
    45    18    50    1
    46    19    21    1
    47    19    25    1
    48    19    51    1
    49    20    52    1
    50    20    53    1
    51    20    54    1
    52    22    26    1
    53    22    28    2
    54    23    27    1
    55    23    55    1
    56    24    56    1
    57    24    57    1
    58    24    58    1
    59    25    59    1
    60    25    60    1
    61    25    61    1
    62    26    27    2
    63    26    29    1
    64    27    63    1
    65    28    30    1
    66    28    64    1
    67    29    31    2
    68    29    32    1
    69    30    31    1
    70    32    65    1
    71    32    66    1
    72    32    67    1
