@<TRIPOS>MOLECULE
IMPHY006385
 36 37 0 0 0
SMALL
GASTEIGER

@<TRIPOS>ATOM
      1 O           2.0000   -0.1751    0.0000 O.2     1  UNL1       -0.2879
      2 C           5.0000   -0.1751    0.0000 C.3     1  UNL1        0.0135
      3 C           5.5878    0.6339    0.0000 C.3     1  UNL1       -0.0334
      4 C           6.5388    0.3249    0.0000 C.3     1  UNL1       -0.0193
      5 C           5.5878   -0.9841    0.0000 C.3     1  UNL1       -0.0394
      6 C           6.5388   -0.6751    0.0000 C.3     1  UNL1       -0.0454
      7 C           4.5000   -1.0412    0.0000 C.2     1  UNL1       -0.0588
      8 C           4.5000    0.6909    0.0000 C.2     1  UNL1       -0.0588
      9 C           7.3479    0.9127    0.0000 C.2     1  UNL1       -0.0766
     10 C           3.5000   -1.0412    0.0000 C.2     1  UNL1       -0.0151
     11 C           3.5000    0.6909    0.0000 C.2     1  UNL1       -0.0151
     12 C           5.0000   -1.9072    0.0000 C.3     1  UNL1       -0.0425
     13 C           5.0000    1.5569    0.0000 C.3     1  UNL1       -0.0425
     14 C           3.0000   -0.1751    0.0000 C.2     1  UNL1        0.1789
     15 C           8.2614    0.5059    0.0000 C.3     1  UNL1       -0.0438
     16 C           7.2433    1.9072    0.0000 C.2     1  UNL1       -0.0994
     17 H           5.8400    1.2003    0.0000 H       1  UNL1        0.0282
     18 H           5.0508    0.9439    0.0000 H       1  UNL1        0.0282
     19 H           6.4418    0.9372    0.0000 H       1  UNL1        0.0346
     20 H           5.0508   -1.2942    0.0000 H       1  UNL1        0.0277
     21 H           5.8400   -1.5505    0.0000 H       1  UNL1        0.0277
     22 H           6.6678   -1.2816    0.0000 H       1  UNL1        0.0271
     23 H           7.1554   -0.6103    0.0000 H       1  UNL1        0.0271
     24 H           3.1900    1.2278    0.0000 H       1  UNL1        0.0655
     25 H           3.1900   -1.5781    0.0000 H       1  UNL1        0.0655
     26 H           4.4631   -2.2172    0.0000 H       1  UNL1        0.0275
     27 H           5.3100   -2.4441    0.0000 H       1  UNL1        0.0275
     28 H           5.5369   -1.5972    0.0000 H       1  UNL1        0.0275
     29 H           5.5369    1.2469    0.0000 H       1  UNL1        0.0275
     30 H           5.3100    2.0939    0.0000 H       1  UNL1        0.0275
     31 H           4.4631    1.8669    0.0000 H       1  UNL1        0.0275
     32 H           8.0092   -0.0605    0.0000 H       1  UNL1        0.0274
     33 H           8.8278    0.2537    0.0000 H       1  UNL1        0.0274
     34 H           8.5136    1.0723    0.0000 H       1  UNL1        0.0274
     35 H           7.7449    2.2716    0.0000 H       1  UNL1        0.0534
     36 H           6.6769    2.1594    0.0000 H       1  UNL1        0.0534
@<TRIPOS>BOND
     1     1    14    2
     2     2     3    1
     3     2     5    1
     4     2     7    1
     5     2     8    1
     6     3     4    1
     7     3    17    1
     8     3    18    1
     9     4     6    1
    10     4     9    1
    11     4    19    1
    12     5     6    1
    13     5    20    1
    14     5    21    1
    15     6    22    1
    16     6    23    1
    17     7    10    2
    18     7    12    1
    19     8    11    2
    20     8    13    1
    21     9    15    1
    22     9    16    2
    23    10    14    1
    24    10    25    1
    25    11    14    1
    26    11    24    1
    27    12    26    1
    28    12    27    1
    29    12    28    1
    30    13    29    1
    31    13    30    1
    32    13    31    1
    33    15    32    1
    34    15    33    1
    35    15    34    1
    36    16    35    1
    37    16    36    1
