@<TRIPOS>MOLECULE
IMPHY003542
 41 46 0 0 0
SMALL
GASTEIGER

@<TRIPOS>ATOM
      1 O          10.3242    0.1223    0.0000 O.3     1  UNL1       -0.4526
      2 O           9.8903   -1.4970    0.0000 O.3     1  UNL1       -0.4526
      3 O           3.3898   -3.3047    0.0000 O.3     1  UNL1       -0.4526
      4 O           2.0000   -2.3672    0.0000 O.3     1  UNL1       -0.4526
      5 N           5.7764    2.3740    0.0000 N.3     1  UNL1       -0.2972
      6 C           6.1470    1.0254    0.0000 C.3     1  UNL1        0.0397
      7 C           5.8882    0.0595    0.0000 C.3     1  UNL1        0.0228
      8 C           4.9104    1.8740    0.0000 C.3     1  UNL1        0.0100
      9 C           7.5459    0.5166    0.0000 C.ar    1  UNL1       -0.0225
     10 C           7.2871   -0.4494    0.0000 C.ar    1  UNL1       -0.0304
     11 C           4.1137    0.7143    0.0000 C.3     1  UNL1       -0.0075
     12 C           4.6672   -0.8062    0.0000 C.ar    1  UNL1       -0.0318
     13 C           3.8381   -0.2470    0.0000 C.ar    1  UNL1       -0.0381
     14 C           8.5478    0.8016    0.0000 C.ar    1  UNL1       -0.0112
     15 C           8.0122   -1.1972    0.0000 C.ar    1  UNL1       -0.0120
     16 C           6.0352    3.3400    0.0000 C.3     1  UNL1       -0.0121
     17 C           4.6105   -1.8463    0.0000 C.ar    1  UNL1       -0.0121
     18 C           2.8950   -0.6891    0.0000 C.ar    1  UNL1       -0.0126
     19 C           9.2900    0.0708    0.0000 C.ar    1  UNL1        0.1666
     20 C           9.0204   -0.9353    0.0000 C.ar    1  UNL1        0.1665
     21 C           3.6778   -2.3101    0.0000 C.ar    1  UNL1        0.1665
     22 C           2.8143   -1.7276    0.0000 C.ar    1  UNL1        0.1665
     23 C          10.6944   -0.8447    0.0000 C.3     1  UNL1        0.2332
     24 C           2.3550   -3.3400    0.0000 C.3     1  UNL1        0.2332
     25 H           5.6268    1.3628    0.0000 H       1  UNL1        0.0515
     26 H           6.2936    0.5286    0.0000 H       1  UNL1        0.0410
     27 H           4.6056    2.4140    0.0000 H       1  UNL1        0.0436
     28 H           4.3675    1.5746    0.0000 H       1  UNL1        0.0436
     29 H           4.1087    1.3342    0.0000 H       1  UNL1        0.0332
     30 H           3.4994    0.7980    0.0000 H       1  UNL1        0.0332
     31 H           8.7013    1.4023    0.0000 H       1  UNL1        0.0659
     32 H           7.8448   -1.7941    0.0000 H       1  UNL1        0.0658
     33 H           6.6341    3.1795    0.0000 H       1  UNL1        0.0391
     34 H           6.1957    3.9388    0.0000 H       1  UNL1        0.0391
     35 H           5.4363    3.5004    0.0000 H       1  UNL1        0.0391
     36 H           5.1285   -2.1870    0.0000 H       1  UNL1        0.0658
     37 H           2.3850   -0.3365    0.0000 H       1  UNL1        0.0658
     38 H          11.0322   -1.3646    0.0000 H       1  UNL1        0.1166
     39 H          11.2469   -0.5634    0.0000 H       1  UNL1        0.1166
     40 H           1.7534   -3.4901    0.0000 H       1  UNL1        0.1166
     41 H           2.4411   -3.9540    0.0000 H       1  UNL1        0.1166
@<TRIPOS>BOND
     1     1    19    1
     2     1    23    1
     3     2    20    1
     4     2    23    1
     5     3    21    1
     6     3    24    1
     7     4    22    1
     8     4    24    1
     9     5     6    1
    10     5     8    1
    11     5    16    1
    12     6     9    1
    13     6    11    1
    14     6    25    1
    15     7     8    1
    16     7    10    1
    17     7    12    1
    18     7    26    1
    19     8    27    1
    20     8    28    1
    21     9    10   ar
    22     9    14   ar
    23    10    15   ar
    24    11    13    1
    25    11    29    1
    26    11    30    1
    27    12    13   ar
    28    12    17   ar
    29    13    18   ar
    30    14    19   ar
    31    14    31    1
    32    15    20   ar
    33    15    32    1
    34    16    33    1
    35    16    34    1
    36    16    35    1
    37    17    21   ar
    38    17    36    1
    39    18    22   ar
    40    18    37    1
    41    19    20   ar
    42    21    22   ar
    43    23    38    1
    44    23    39    1
    45    24    40    1
    46    24    41    1
