@<TRIPOS>MOLECULE
IMPHY009882
 127 133 0 0 0
SMALL
GASTEIGER

@<TRIPOS>ATOM
      1 O           5.1247    1.1055    0.0000 O.3     1  UNL1       -0.3912
      2 O           6.8671   -2.9673    0.0000 O.3     1  UNL1       -0.3449
      3 O           8.6575    5.1364    0.0000 O.3     1  UNL1       -0.3915
      4 O           5.1350   -2.9673    0.0000 O.3     1  UNL1       -0.3405
      5 O           6.8671   -4.9673    0.0000 O.3     1  UNL1       -0.3378
      6 O           7.4222    7.7734    0.0000 O.3     1  UNL1       -0.3915
      7 O           5.1350   -5.9673    0.0000 O.3     1  UNL1       -0.3864
      8 O           3.4030   -4.9673    0.0000 O.3     1  UNL1       -0.3865
      9 O           2.5369   -3.4673    0.0000 O.3     1  UNL1       -0.3924
     10 O           6.0010   -6.4673    0.0000 O.3     1  UNL1       -0.3431
     11 O           8.5991   -5.9673    0.0000 O.3     1  UNL1       -0.3841
     12 O           8.5991   -7.9673    0.0000 O.3     1  UNL1       -0.3864
     13 O           6.8671   -8.9673    0.0000 O.3     1  UNL1       -0.3866
     14 C           6.8948    1.1018    0.0000 C.3     1  UNL1        0.0065
     15 C           6.8910    0.1018    0.0000 C.3     1  UNL1       -0.0169
     16 C           6.0264    0.6052    0.0000 C.3     1  UNL1       -0.0377
     17 C           7.7628    1.5985    0.0000 C.3     1  UNL1       -0.0265
     18 C           7.7551   -0.4015    0.0000 C.3     1  UNL1       -0.0272
     19 C           7.7829    2.6399    0.0000 C.3     1  UNL1       -0.0205
     20 C           5.9868    1.6122    0.0000 C.3     1  UNL1        0.0622
     21 C           6.8869    3.1711    0.0000 C.3     1  UNL1       -0.0186
     22 C           5.9790   -0.4015    0.0000 C.3     1  UNL1       -0.0441
     23 C           8.6269    1.0952    0.0000 C.3     1  UNL1       -0.0488
     24 C           5.9828    2.6538    0.0000 C.3     1  UNL1       -0.0200
     25 C           8.6230    0.0952    0.0000 C.3     1  UNL1       -0.0488
     26 C           7.7671   -1.4430    0.0000 C.3     1  UNL1       -0.0052
     27 C           7.1165    4.1808    0.0000 C.3     1  UNL1       -0.0064
     28 C           8.5586    3.3259    0.0000 C.3     1  UNL1       -0.0204
     29 C           5.9670   -1.4430    0.0000 C.3     1  UNL1       -0.0255
     30 C           6.8671   -1.9673    0.0000 C.3     1  UNL1        0.0672
     31 C           8.1475    4.2763    0.0000 C.3     1  UNL1        0.0593
     32 C           8.6430    2.1300    0.0000 C.3     1  UNL1       -0.0587
     33 C           6.0267    3.6811    0.0000 C.3     1  UNL1       -0.0586
     34 C           6.4573    4.9328    0.0000 C.3     1  UNL1       -0.0381
     35 C           8.7671   -1.4353    0.0000 C.3     1  UNL1       -0.0572
     36 C           8.2738   -2.3052    0.0000 C.3     1  UNL1       -0.0572
     37 C           6.7789    5.8797    0.0000 C.3     1  UNL1       -0.0478
     38 C           5.4765    4.7379    0.0000 C.3     1  UNL1       -0.0621
     39 C           6.0010   -3.4673    0.0000 C.3     1  UNL1        0.1886
     40 C           6.1197    6.6316    0.0000 C.3     1  UNL1       -0.0264
     41 C           6.0010   -4.4673    0.0000 C.3     1  UNL1        0.1406
     42 C           6.4414    7.5785    0.0000 C.3     1  UNL1        0.0576
     43 C           5.1350   -4.9673    0.0000 C.3     1  UNL1        0.1144
     44 C           4.2690   -3.4673    0.0000 C.3     1  UNL1        0.1130
     45 C           4.2690   -4.4673    0.0000 C.3     1  UNL1        0.1119
     46 C           5.7822    8.3305    0.0000 C.3     1  UNL1       -0.0206
     47 C           3.4030   -2.9673    0.0000 C.3     1  UNL1        0.0730
     48 C           6.8671   -5.9673    0.0000 C.3     1  UNL1        0.1884
     49 C           6.1038    9.2773    0.0000 C.3     1  UNL1       -0.0603
     50 C           4.8013    8.1356    0.0000 C.3     1  UNL1       -0.0603
     51 C           7.7331   -6.4673    0.0000 C.3     1  UNL1        0.1341
     52 C           7.7331   -7.4673    0.0000 C.3     1  UNL1        0.1140
     53 C           6.0010   -7.4673    0.0000 C.3     1  UNL1        0.0873
     54 C           6.8671   -7.9673    0.0000 C.3     1  UNL1        0.1095
     55 C           5.1350   -7.9673    0.0000 C.3     1  UNL1       -0.0361
     56 H           5.6297    1.0817    0.0000 H       1  UNL1        0.0277
     57 H           5.6261    0.1317    0.0000 H       1  UNL1        0.0277
     58 H           8.5038    2.0149    0.0000 H       1  UNL1        0.0313
     59 H           8.4928   -0.8237    0.0000 H       1  UNL1        0.0312
     60 H           5.4481    1.9191    0.0000 H       1  UNL1        0.0599
     61 H           5.7768    0.1846    0.0000 H       1  UNL1        0.0272
     62 H           5.3670   -0.5005    0.0000 H       1  UNL1        0.0272
     63 H           9.2370    0.9851    0.0000 H       1  UNL1        0.0268
     64 H           8.8412    1.6769    0.0000 H       1  UNL1        0.0268
     65 H           5.7715    3.2367    0.0000 H       1  UNL1        0.0296
     66 H           5.3724    2.5454    0.0000 H       1  UNL1        0.0296
     67 H           8.8328   -0.4883    0.0000 H       1  UNL1        0.0268
     68 H           9.2340    0.2005    0.0000 H       1  UNL1        0.0268
     69 H           7.4313    4.9704    0.0000 H       1  UNL1        0.0334
     70 H           8.9182    2.8208    0.0000 H       1  UNL1        0.0296
     71 H           9.0986    3.6304    0.0000 H       1  UNL1        0.0296
     72 H           5.3574   -1.3299    0.0000 H       1  UNL1        0.0290
     73 H           5.7512   -2.0243    0.0000 H       1  UNL1        0.0290
     74 H           7.4046   -2.2763    0.0000 H       1  UNL1        0.0602
     75 H           8.7663    4.2369    0.0000 H       1  UNL1        0.0596
     76 H           8.3269    1.5966    0.0000 H       1  UNL1        0.0235
     77 H           9.1764    1.8138    0.0000 H       1  UNL1        0.0235
     78 H           8.9592    2.6633    0.0000 H       1  UNL1        0.0235
     79 H           6.3429    4.2144    0.0000 H       1  UNL1        0.0235
     80 H           5.4934    3.9973    0.0000 H       1  UNL1        0.0235
     81 H           5.7105    3.1478    0.0000 H       1  UNL1        0.0235
     82 H           6.2579    4.3458    0.0000 H       1  UNL1        0.0302
     83 H           4.5854    1.4114    0.0000 H       1  UNL1        0.2098
     84 H           7.7393   -2.6193    0.0000 H       1  UNL1        0.0236
     85 H           8.5879   -2.8397    0.0000 H       1  UNL1        0.0236
     86 H           8.8083   -1.9911    0.0000 H       1  UNL1        0.0236
     87 H           8.7719   -2.0553    0.0000 H       1  UNL1        0.0236
     88 H           9.3871   -1.4306    0.0000 H       1  UNL1        0.0236
     89 H           8.7623   -0.8154    0.0000 H       1  UNL1        0.0236
     90 H           9.2775    5.1293    0.0000 H       1  UNL1        0.2098
     91 H           7.3224    5.5813    0.0000 H       1  UNL1        0.0269
     92 H           7.1671    6.3631    0.0000 H       1  UNL1        0.0269
     93 H           5.3556    5.3460    0.0000 H       1  UNL1        0.0233
     94 H           4.8683    4.6171    0.0000 H       1  UNL1        0.0233
     95 H           5.5973    4.1298    0.0000 H       1  UNL1        0.0233
     96 H           6.0010   -2.8473    0.0000 H       1  UNL1        0.0938
     97 H           5.5762    6.9300    0.0000 H       1  UNL1        0.0290
     98 H           5.7316    6.1482    0.0000 H       1  UNL1        0.0290
     99 H           6.5380   -4.1573    0.0000 H       1  UNL1        0.0675
    100 H           6.8500    7.1123    0.0000 H       1  UNL1        0.0596
    101 H           5.6720   -5.2773    0.0000 H       1  UNL1        0.0648
    102 H           4.2690   -2.8473    0.0000 H       1  UNL1        0.0647
    103 H           3.7320   -4.1573    0.0000 H       1  UNL1        0.0647
    104 H           5.5828    7.7434    0.0000 H       1  UNL1        0.0320
    105 H           7.6216    8.3604    0.0000 H       1  UNL1        0.2098
    106 H           3.8015   -2.4924    0.0000 H       1  UNL1        0.0584
    107 H           3.0044   -2.4924    0.0000 H       1  UNL1        0.0584
    108 H           4.5981   -6.2773    0.0000 H       1  UNL1        0.2100
    109 H           7.4040   -5.6573    0.0000 H       1  UNL1        0.0938
    110 H           6.6908    9.0779    0.0000 H       1  UNL1        0.0233
    111 H           4.6805    8.7437    0.0000 H       1  UNL1        0.0233
    112 H           6.3032    9.8644    0.0000 H       1  UNL1        0.0233
    113 H           5.5167    9.4768    0.0000 H       1  UNL1        0.0233
    114 H           4.1932    8.0148    0.0000 H       1  UNL1        0.0233
    115 H           4.9222    7.5275    0.0000 H       1  UNL1        0.0233
    116 H           3.4030   -5.5873    0.0000 H       1  UNL1        0.2100
    117 H           8.2700   -6.7773    0.0000 H       1  UNL1        0.0671
    118 H           2.0000   -3.1573    0.0000 H       1  UNL1        0.2095
    119 H           7.7331   -8.0873    0.0000 H       1  UNL1        0.0648
    120 H           5.4641   -7.1573    0.0000 H       1  UNL1        0.0621
    121 H           6.3301   -8.2773    0.0000 H       1  UNL1        0.0646
    122 H           9.1360   -6.2773    0.0000 H       1  UNL1        0.2101
    123 H           4.8250   -7.4304    0.0000 H       1  UNL1        0.0255
    124 H           4.5981   -8.2773    0.0000 H       1  UNL1        0.0255
    125 H           5.4450   -8.5043    0.0000 H       1  UNL1        0.0255
    126 H           8.5991   -8.5873    0.0000 H       1  UNL1        0.2100
    127 H           6.3301   -9.2773    0.0000 H       1  UNL1        0.2100
@<TRIPOS>BOND
     1    20     1    1
     2     1    83    1
     3    30     2    1
     4    39     2    1
     5    31     3    1
     6     3    90    1
     7     4    39    1
     8     4    44    1
     9    41     5    1
    10    48     5    1
    11    42     6    1
    12     6   105    1
    13    43     7    1
    14     7   108    1
    15    45     8    1
    16     8   116    1
    17     9    47    1
    18     9   118    1
    19    10    48    1
    20    10    53    1
    21    51    11    1
    22    11   122    1
    23    52    12    1
    24    12   126    1
    25    54    13    1
    26    13   127    1
    27    14    15    1
    28    14    16    1
    29    14    17    1
    30    14    20    1
    31    15    16    1
    32    15    18    1
    33    15    22    1
    34    16    56    1
    35    16    57    1
    36    17    19    1
    37    17    23    1
    38    17    58    1
    39    18    25    1
    40    18    26    1
    41    18    59    1
    42    19    21    1
    43    19    28    1
    44    19    32    1
    45    20    24    1
    46    20    60    1
    47    21    24    1
    48    21    27    1
    49    21    33    1
    50    22    29    1
    51    22    61    1
    52    22    62    1
    53    23    25    1
    54    23    63    1
    55    23    64    1
    56    24    65    1
    57    24    66    1
    58    25    67    1
    59    25    68    1
    60    26    30    1
    61    26    35    1
    62    26    36    1
    63    27    31    1
    64    27    34    1
    65    27    69    1
    66    28    31    1
    67    28    70    1
    68    28    71    1
    69    29    30    1
    70    29    72    1
    71    29    73    1
    72    30    74    1
    73    31    75    1
    74    32    76    1
    75    32    77    1
    76    32    78    1
    77    33    79    1
    78    33    80    1
    79    33    81    1
    80    34    37    1
    81    34    38    1
    82    34    82    1
    83    35    87    1
    84    35    88    1
    85    35    89    1
    86    36    84    1
    87    36    85    1
    88    36    86    1
    89    37    40    1
    90    37    91    1
    91    37    92    1
    92    38    93    1
    93    38    94    1
    94    38    95    1
    95    39    41    1
    96    39    96    1
    97    40    42    1
    98    40    97    1
    99    40    98    1
   100    41    43    1
   101    41    99    1
   102    42    46    1
   103    42   100    1
   104    43    45    1
   105    43   101    1
   106    44    45    1
   107    44    47    1
   108    44   102    1
   109    45   103    1
   110    46    49    1
   111    46    50    1
   112    46   104    1
   113    47   106    1
   114    47   107    1
   115    48    51    1
   116    48   109    1
   117    49   110    1
   118    49   112    1
   119    49   113    1
   120    50   111    1
   121    50   114    1
   122    50   115    1
   123    51    52    1
   124    51   117    1
   125    52    54    1
   126    52   119    1
   127    53    54    1
   128    53    55    1
   129    53   120    1
   130    54   121    1
   131    55   123    1
   132    55   124    1
   133    55   125    1
