@<TRIPOS>MOLECULE
IMPHY010631
 11 10 0 0 0
SMALL
GASTEIGER

@<TRIPOS>ATOM
      1 S           4.5981    0.2500    0.0000 S.3     1  UNL1        0.0173
      2 O           5.4641   -0.2500    0.0000 O.3     1  UNL1       -0.3248
      3 C           2.0000   -0.2500    0.0000 C.3     1  UNL1       -0.0460
      4 C           2.8660    0.2500    0.0000 C.2     1  UNL1       -0.0788
      5 C           3.7320   -0.2500    0.0000 C.2     1  UNL1       -0.0054
      6 H           2.8660    0.8700    0.0000 H       1  UNL1        0.0575
      7 H           1.6900    0.2869    0.0000 H       1  UNL1        0.0272
      8 H           1.4631   -0.5600    0.0000 H       1  UNL1        0.0272
      9 H           2.3100   -0.7869    0.0000 H       1  UNL1        0.0272
     10 H           3.7320   -0.8700    0.0000 H       1  UNL1        0.0709
     11 H           6.0010    0.0600    0.0000 H       1  UNL1        0.2277
@<TRIPOS>BOND
     1     1     2    1
     2     1     5    1
     3     2    11    1
     4     3     4    1
     5     3     7    1
     6     3     8    1
     7     3     9    1
     8     4     5    2
     9     4     6    1
    10     5    10    1
