@<TRIPOS>MOLECULE
IMPHY006589
 49 51 0 0 0
SMALL
GASTEIGER

@<TRIPOS>ATOM
      1 O           3.7891   -0.2906    0.0000 O.3     1  UNL1       -0.3709
      2 O           7.1013    0.0695    0.0000 O.3     1  UNL1       -0.3946
      3 O           6.6804    1.3649    0.0000 O.2     1  UNL1       -0.2917
      4 O           2.8660   -3.8784    0.0000 O.3     1  UNL1       -0.4914
      5 O           4.5981   -4.8784    0.0000 O.3     1  UNL1       -0.5033
      6 O           6.0480    4.9146    0.0000 O.3     1  UNL1       -0.4914
      7 O           4.0589    5.1236    0.0000 O.3     1  UNL1       -0.5033
      8 C           5.4071   -0.2906    0.0000 C.3     1  UNL1        0.0245
      9 C           5.0981    0.6604    0.0000 C.3     1  UNL1        0.0530
     10 C           4.5981   -0.8784    0.0000 C.3     1  UNL1        0.0894
     11 C           4.0981    0.6604    0.0000 C.3     1  UNL1        0.0587
     12 C           6.3582   -0.5997    0.0000 C.3     1  UNL1        0.0504
     13 C           4.5981   -1.8784    0.0000 C.ar    1  UNL1       -0.0149
     14 C           5.6859    1.4694    0.0000 C.2     1  UNL1        0.1689
     15 C           5.2791    2.3830    0.0000 C.ar    1  UNL1        0.0214
     16 C           3.7320   -2.3784    0.0000 C.ar    1  UNL1       -0.0107
     17 C           5.4641   -2.3784    0.0000 C.ar    1  UNL1       -0.0524
     18 C           3.7320   -3.3784    0.0000 C.ar    1  UNL1        0.1616
     19 C           5.4641   -3.3784    0.0000 C.ar    1  UNL1       -0.0162
     20 C           5.8669    3.1920    0.0000 C.ar    1  UNL1       -0.0058
     21 C           4.2846    2.4875    0.0000 C.ar    1  UNL1       -0.0476
     22 C           4.5981   -3.8784    0.0000 C.ar    1  UNL1        0.1585
     23 C           5.4602    4.1055    0.0000 C.ar    1  UNL1        0.1619
     24 C           3.8779    3.4010    0.0000 C.ar    1  UNL1       -0.0159
     25 C           4.4656    4.2101    0.0000 C.ar    1  UNL1        0.1585
     26 C           2.0000   -3.3784    0.0000 C.3     1  UNL1        0.0790
     27 C           7.0425    4.8100    0.0000 C.3     1  UNL1        0.0790
     28 H           5.5041   -0.9030    0.0000 H       1  UNL1        0.0359
     29 H           5.7104    0.5634    0.0000 H       1  UNL1        0.0408
     30 H           5.1505   -1.1599    0.0000 H       1  UNL1        0.0650
     31 H           4.1629    1.2770    0.0000 H       1  UNL1        0.0567
     32 H           3.4916    0.7893    0.0000 H       1  UNL1        0.0567
     33 H           6.0671   -1.1471    0.0000 H       1  UNL1        0.0561
     34 H           6.8467   -0.9814    0.0000 H       1  UNL1        0.0561
     35 H           3.1951   -2.0684    0.0000 H       1  UNL1        0.0659
     36 H           6.0010   -2.0684    0.0000 H       1  UNL1        0.0622
     37 H           7.6910   -0.1221    0.0000 H       1  UNL1        0.2094
     38 H           6.0010   -3.6884    0.0000 H       1  UNL1        0.0655
     39 H           6.4835    3.1272    0.0000 H       1  UNL1        0.0662
     40 H           3.9202    1.9859    0.0000 H       1  UNL1        0.0626
     41 H           3.2613    3.4659    0.0000 H       1  UNL1        0.0655
     42 H           5.1350   -5.1884    0.0000 H       1  UNL1        0.2923
     43 H           2.3100   -2.8415    0.0000 H       1  UNL1        0.0660
     44 H           1.4631   -3.0684    0.0000 H       1  UNL1        0.0660
     45 H           1.6900   -3.9154    0.0000 H       1  UNL1        0.0660
     46 H           3.4423    5.1884    0.0000 H       1  UNL1        0.2923
     47 H           6.9777    4.1934    0.0000 H       1  UNL1        0.0660
     48 H           7.6591    4.7452    0.0000 H       1  UNL1        0.0660
     49 H           7.1073    5.4266    0.0000 H       1  UNL1        0.0660
@<TRIPOS>BOND
     1     1    10    1
     2     1    11    1
     3     2    12    1
     4     2    37    1
     5     3    14    2
     6     4    18    1
     7     4    26    1
     8     5    22    1
     9     5    42    1
    10     6    23    1
    11     6    27    1
    12     7    25    1
    13     7    46    1
    14     8     9    1
    15     8    10    1
    16     8    12    1
    17     8    28    1
    18     9    11    1
    19     9    14    1
    20     9    29    1
    21    10    13    1
    22    10    30    1
    23    11    31    1
    24    11    32    1
    25    12    33    1
    26    12    34    1
    27    13    16   ar
    28    13    17   ar
    29    14    15    1
    30    15    20   ar
    31    15    21   ar
    32    16    18   ar
    33    16    35    1
    34    17    19   ar
    35    17    36    1
    36    18    22   ar
    37    19    22   ar
    38    19    38    1
    39    20    23   ar
    40    20    39    1
    41    21    24   ar
    42    21    40    1
    43    23    25   ar
    44    24    25   ar
    45    24    41    1
    46    26    43    1
    47    26    44    1
    48    26    45    1
    49    27    47    1
    50    27    48    1
    51    27    49    1
