@<TRIPOS>MOLECULE
IMPHY017739
 27 27 0 0 0
SMALL
GASTEIGER

@<TRIPOS>ATOM
      1 O           2.0000    1.7500    0.0000 O.2     1  UNL1       -0.2921
      2 O           2.8660   -2.7500    0.0000 O.3     1  UNL1       -0.4951
      3 C           3.7320    1.7500    0.0000 C.3     1  UNL1        0.0102
      4 C           3.7320    2.7500    0.0000 C.3     1  UNL1       -0.0489
      5 C           2.8660    1.2500    0.0000 C.2     1  UNL1        0.1632
      6 C           2.8660    0.2500    0.0000 C.ar    1  UNL1        0.0176
      7 C           4.5981    3.2500    0.0000 C.3     1  UNL1       -0.0649
      8 C           3.7320   -0.2500    0.0000 C.ar    1  UNL1       -0.0478
      9 C           2.0000   -0.2500    0.0000 C.ar    1  UNL1       -0.0478
     10 C           2.8660   -1.7500    0.0000 C.ar    1  UNL1        0.1201
     11 C           3.7320   -1.2500    0.0000 C.ar    1  UNL1       -0.0193
     12 C           2.0000   -1.2500    0.0000 C.ar    1  UNL1       -0.0193
     13 C           2.0000   -3.2500    0.0000 C.3     1  UNL1        0.0788
     14 H           3.9441    1.1674    0.0000 H       1  UNL1        0.0345
     15 H           4.3426    1.8577    0.0000 H       1  UNL1        0.0345
     16 H           3.5200    3.3326    0.0000 H       1  UNL1        0.0267
     17 H           3.1215    2.6423    0.0000 H       1  UNL1        0.0267
     18 H           4.9081    2.7131    0.0000 H       1  UNL1        0.0230
     19 H           5.1350    3.5600    0.0000 H       1  UNL1        0.0230
     20 H           4.2881    3.7869    0.0000 H       1  UNL1        0.0230
     21 H           4.2690    0.0600    0.0000 H       1  UNL1        0.0626
     22 H           1.4631    0.0600    0.0000 H       1  UNL1        0.0626
     23 H           4.2690   -1.5600    0.0000 H       1  UNL1        0.0654
     24 H           1.4631   -1.5600    0.0000 H       1  UNL1        0.0654
     25 H           1.6900   -2.7131    0.0000 H       1  UNL1        0.0660
     26 H           1.4631   -3.5600    0.0000 H       1  UNL1        0.0660
     27 H           2.3100   -3.7869    0.0000 H       1  UNL1        0.0660
@<TRIPOS>BOND
     1     1     5    2
     2     2    10    1
     3     2    13    1
     4     3     4    1
     5     3     5    1
     6     3    14    1
     7     3    15    1
     8     4     7    1
     9     4    16    1
    10     4    17    1
    11     5     6    1
    12     6     8   ar
    13     6     9   ar
    14     7    18    1
    15     7    19    1
    16     7    20    1
    17     8    11   ar
    18     8    21    1
    19     9    12   ar
    20     9    22    1
    21    10    11   ar
    22    10    12   ar
    23    11    23    1
    24    12    24    1
    25    13    25    1
    26    13    26    1
    27    13    27    1
