@<TRIPOS>MOLECULE
IMPHY000282
 104 106 0 0 0
SMALL
GASTEIGER

@<TRIPOS>ATOM
      1 O          15.3350    0.1180    0.0000 O.3     1  UNL1       -0.3683
      2 O          17.4041   -0.5543    0.0000 O.3     1  UNL1       -0.3683
      3 O          13.3670   -0.5814    0.0000 O.3     1  UNL1       -0.3892
      4 O          18.5851   -2.2769    0.0000 O.3     1  UNL1       -0.3892
      5 O           6.1595    3.5009    0.0000 O.3     1  UNL1       -0.4611
      6 O           5.0380    4.8858    0.0000 O.2     1  UNL1       -0.2505
      7 O           3.4013    1.5464    0.0000 O.2     1  UNL1       -0.2977
      8 C          16.1440    0.7058    0.0000 C.3     1  UNL1        0.0853
      9 C          17.0951    0.3968    0.0000 C.3     1  UNL1        0.0853
     10 C          15.8350    1.6568    0.0000 C.3     1  UNL1       -0.0217
     11 C          17.9041    0.9845    0.0000 C.3     1  UNL1       -0.0217
     12 C          14.5260    0.7058    0.0000 C.3     1  UNL1        0.0850
     13 C          18.4041   -0.5543    0.0000 C.3     1  UNL1        0.0850
     14 C          14.8350    1.6568    0.0000 C.3     1  UNL1       -0.0217
     15 C          18.7131    0.3968    0.0000 C.3     1  UNL1       -0.0217
     16 C          13.5749    0.3968    0.0000 C.3     1  UNL1        0.0813
     17 C          18.9919   -1.3633    0.0000 C.3     1  UNL1        0.0813
     18 C          12.8318    1.0659    0.0000 C.3     1  UNL1       -0.0244
     19 C          19.9864   -1.2588    0.0000 C.3     1  UNL1       -0.0244
     20 C          11.8807    0.7569    0.0000 C.3     1  UNL1       -0.0506
     21 C          20.5742   -2.0678    0.0000 C.3     1  UNL1       -0.0506
     22 C          11.1376    1.4260    0.0000 C.3     1  UNL1       -0.0530
     23 C          21.5687   -1.9633    0.0000 C.3     1  UNL1       -0.0530
     24 C          10.1865    1.1170    0.0000 C.3     1  UNL1       -0.0531
     25 C          22.1565   -2.7723    0.0000 C.3     1  UNL1       -0.0531
     26 C           9.4434    1.7861    0.0000 C.3     1  UNL1       -0.0531
     27 C           6.0550    2.5064    0.0000 C.3     1  UNL1        0.1039
     28 C           8.4923    1.4771    0.0000 C.3     1  UNL1       -0.0529
     29 C           6.7981    1.8372    0.0000 C.3     1  UNL1       -0.0156
     30 C           7.7492    2.1462    0.0000 C.3     1  UNL1       -0.0497
     31 C           5.0768    2.2984    0.0000 C.3     1  UNL1       -0.0024
     32 C           4.5768    3.1645    0.0000 C.3     1  UNL1        0.0664
     33 C          23.1510   -2.6678    0.0000 C.3     1  UNL1       -0.0531
     34 C           5.2460    3.9076    0.0000 C.2     1  UNL1        0.3110
     35 C          23.7388   -3.4768    0.0000 C.3     1  UNL1       -0.0531
     36 C           3.5823    3.2690    0.0000 C.3     1  UNL1        0.0186
     37 C          24.7333   -3.3722    0.0000 C.3     1  UNL1       -0.0531
     38 C           2.9945    2.4600    0.0000 C.2     1  UNL1        0.1311
     39 C          25.3211   -4.1813    0.0000 C.3     1  UNL1       -0.0533
     40 C          26.3156   -4.0767    0.0000 C.3     1  UNL1       -0.0559
     41 C           2.0000    2.5645    0.0000 C.3     1  UNL1       -0.0060
     42 C          26.9034   -4.8858    0.0000 C.3     1  UNL1       -0.0653
     43 H          16.2410    0.0934    0.0000 H       1  UNL1        0.0622
     44 H          16.6567   -0.0416    0.0000 H       1  UNL1        0.0622
     45 H          16.4415    1.7857    0.0000 H       1  UNL1        0.0292
     46 H          15.7702    2.2734    0.0000 H       1  UNL1        0.0292
     47 H          18.3190    1.4453    0.0000 H       1  UNL1        0.0292
     48 H          17.4892    1.4453    0.0000 H       1  UNL1        0.0292
     49 H          14.4290    0.0934    0.0000 H       1  UNL1        0.0622
     50 H          18.1226   -1.1067    0.0000 H       1  UNL1        0.0622
     51 H          14.8998    2.2734    0.0000 H       1  UNL1        0.0292
     52 H          14.2285    1.7857    0.0000 H       1  UNL1        0.0292
     53 H          19.2795    0.1446    0.0000 H       1  UNL1        0.0292
     54 H          19.0231    0.9337    0.0000 H       1  UNL1        0.0292
     55 H          12.9853    0.2052    0.0000 H       1  UNL1        0.0619
     56 H          19.3563   -1.8649    0.0000 H       1  UNL1        0.0619
     57 H          13.3203    1.4476    0.0000 H       1  UNL1        0.0291
     58 H          12.5407    1.6133    0.0000 H       1  UNL1        0.0291
     59 H          20.5437   -0.9870    0.0000 H       1  UNL1        0.0291
     60 H          19.8155   -0.6628    0.0000 H       1  UNL1        0.0291
     61 H          11.3922    0.3752    0.0000 H       1  UNL1        0.0266
     62 H          12.1718    0.2094    0.0000 H       1  UNL1        0.0266
     63 H          20.0169   -2.3396    0.0000 H       1  UNL1        0.0266
     64 H          20.7451   -2.6638    0.0000 H       1  UNL1        0.0266
     65 H          12.7774   -0.7730    0.0000 H       1  UNL1        0.2099
     66 H          18.9496   -2.7784    0.0000 H       1  UNL1        0.2099
     67 H          11.6261    1.8077    0.0000 H       1  UNL1        0.0265
     68 H          10.8465    1.9734    0.0000 H       1  UNL1        0.0265
     69 H          22.1260   -1.6915    0.0000 H       1  UNL1        0.0265
     70 H          21.3978   -1.3673    0.0000 H       1  UNL1        0.0265
     71 H           9.6980    0.7353    0.0000 H       1  UNL1        0.0265
     72 H          10.4776    0.5696    0.0000 H       1  UNL1        0.0265
     73 H          21.5992   -3.0441    0.0000 H       1  UNL1        0.0265
     74 H          22.3274   -3.3683    0.0000 H       1  UNL1        0.0265
     75 H           9.9320    2.1678    0.0000 H       1  UNL1        0.0265
     76 H           9.1523    2.3335    0.0000 H       1  UNL1        0.0265
     77 H           6.6338    2.7285    0.0000 H       1  UNL1        0.0734
     78 H           8.0038    1.0954    0.0000 H       1  UNL1        0.0265
     79 H           8.7834    0.9297    0.0000 H       1  UNL1        0.0265
     80 H           6.3096    1.4555    0.0000 H       1  UNL1        0.0301
     81 H           7.0892    1.2898    0.0000 H       1  UNL1        0.0301
     82 H           8.2377    2.5279    0.0000 H       1  UNL1        0.0266
     83 H           7.4581    2.6937    0.0000 H       1  UNL1        0.0266
     84 H           4.5104    2.0463    0.0000 H       1  UNL1        0.0309
     85 H           5.2684    1.7088    0.0000 H       1  UNL1        0.0309
     86 H           4.2392    2.6445    0.0000 H       1  UNL1        0.0419
     87 H          23.7083   -2.3960    0.0000 H       1  UNL1        0.0265
     88 H          22.9801   -2.0718    0.0000 H       1  UNL1        0.0265
     89 H           3.7532    3.8650    0.0000 H       1  UNL1        0.0349
     90 H           3.0250    3.5408    0.0000 H       1  UNL1        0.0349
     91 H          23.1815   -3.7486    0.0000 H       1  UNL1        0.0265
     92 H          23.9097   -4.0728    0.0000 H       1  UNL1        0.0265
     93 H          25.2906   -3.1005    0.0000 H       1  UNL1        0.0265
     94 H          24.5624   -2.7763    0.0000 H       1  UNL1        0.0265
     95 H          24.7639   -4.4530    0.0000 H       1  UNL1        0.0265
     96 H          25.4920   -4.7773    0.0000 H       1  UNL1        0.0265
     97 H          26.8729   -3.8050    0.0000 H       1  UNL1        0.0263
     98 H          26.1447   -3.4808    0.0000 H       1  UNL1        0.0263
     99 H           2.0648    3.1811    0.0000 H       1  UNL1        0.0306
    100 H           1.3834    2.6293    0.0000 H       1  UNL1        0.0306
    101 H           1.9352    1.9479    0.0000 H       1  UNL1        0.0306
    102 H          26.4018   -5.2502    0.0000 H       1  UNL1        0.0230
    103 H          27.2678   -5.3873    0.0000 H       1  UNL1        0.0230
    104 H          27.4050   -4.5213    0.0000 H       1  UNL1        0.0230
@<TRIPOS>BOND
     1     1     8    1
     2     1    12    1
     3     2     9    1
     4     2    13    1
     5     3    16    1
     6     3    65    1
     7     4    17    1
     8     4    66    1
     9     5    27    1
    10     5    34    1
    11     6    34    2
    12     7    38    2
    13     8     9    1
    14     8    10    1
    15     8    43    1
    16     9    11    1
    17     9    44    1
    18    10    14    1
    19    10    45    1
    20    10    46    1
    21    11    15    1
    22    11    47    1
    23    11    48    1
    24    12    14    1
    25    12    16    1
    26    12    49    1
    27    13    15    1
    28    13    17    1
    29    13    50    1
    30    14    51    1
    31    14    52    1
    32    15    53    1
    33    15    54    1
    34    16    18    1
    35    16    55    1
    36    17    19    1
    37    17    56    1
    38    18    20    1
    39    18    57    1
    40    18    58    1
    41    19    21    1
    42    19    59    1
    43    19    60    1
    44    20    22    1
    45    20    61    1
    46    20    62    1
    47    21    23    1
    48    21    63    1
    49    21    64    1
    50    22    24    1
    51    22    67    1
    52    22    68    1
    53    23    25    1
    54    23    69    1
    55    23    70    1
    56    24    26    1
    57    24    71    1
    58    24    72    1
    59    25    33    1
    60    25    73    1
    61    25    74    1
    62    26    28    1
    63    26    75    1
    64    26    76    1
    65    27    29    1
    66    27    31    1
    67    27    77    1
    68    28    30    1
    69    28    78    1
    70    28    79    1
    71    29    30    1
    72    29    80    1
    73    29    81    1
    74    30    82    1
    75    30    83    1
    76    31    32    1
    77    31    84    1
    78    31    85    1
    79    32    34    1
    80    32    36    1
    81    32    86    1
    82    33    35    1
    83    33    87    1
    84    33    88    1
    85    35    37    1
    86    35    91    1
    87    35    92    1
    88    36    38    1
    89    36    89    1
    90    36    90    1
    91    37    39    1
    92    37    93    1
    93    37    94    1
    94    38    41    1
    95    39    40    1
    96    39    95    1
    97    39    96    1
    98    40    42    1
    99    40    97    1
   100    40    98    1
   101    41    99    1
   102    41   100    1
   103    41   101    1
   104    42   102    1
   105    42   103    1
   106    42   104    1
