@<TRIPOS>MOLECULE
IMPHY010594
 48 51 0 0 0
SMALL
GASTEIGER

@<TRIPOS>ATOM
      1 O           5.6500    0.4084    0.0000 O.3     1  UNL1       -0.4904
      2 O           3.9061   -2.6678    0.0000 O.3     1  UNL1       -0.4815
      3 O           9.1783   -0.5914    0.0000 O.3     1  UNL1       -0.5030
      4 O          10.9142    0.4019    0.0000 O.3     1  UNL1       -0.4885
      5 O          10.9219    2.4019    0.0000 O.3     1  UNL1       -0.5032
      6 C           7.4501    0.4153    0.0000 C.3     1  UNL1        0.0260
      7 C           7.4420   -0.6263    0.0000 C.3     1  UNL1       -0.0141
      8 C           6.5320   -1.1332    0.0000 C.ar    1  UNL1       -0.0042
      9 C           6.5480    0.9361    0.0000 C.3     1  UNL1        0.0968
     10 C           5.6660   -0.6332    0.0000 C.ar    1  UNL1        0.1343
     11 C           8.3180    0.9119    0.0000 C.ar    1  UNL1        0.0045
     12 C           4.8000   -1.1332    0.0000 C.ar    1  UNL1        0.0584
     13 C           3.0000   -2.1540    0.0000 C.3     1  UNL1        0.1235
     14 C           4.8000   -2.1332    0.0000 C.ar    1  UNL1        0.1324
     15 C           6.5320   -2.1332    0.0000 C.ar    1  UNL1       -0.0516
     16 C           3.9061   -0.5985    0.0000 C.2     1  UNL1       -0.0478
     17 C           5.6660   -2.6332    0.0000 C.ar    1  UNL1       -0.0188
     18 C           3.0000   -1.1123    0.0000 C.2     1  UNL1       -0.0408
     19 C           9.1821    0.4086    0.0000 C.ar    1  UNL1        0.1658
     20 C           8.3219    1.9119    0.0000 C.ar    1  UNL1       -0.0510
     21 C           2.0000   -2.1578    0.0000 C.3     1  UNL1       -0.0215
     22 C           2.5033   -3.0219    0.0000 C.3     1  UNL1       -0.0215
     23 C          10.0501    0.9053    0.0000 C.ar    1  UNL1        0.2033
     24 C           9.1898    2.4086    0.0000 C.ar    1  UNL1       -0.0160
     25 C          10.0539    1.9053    0.0000 C.ar    1  UNL1        0.1622
     26 C          11.7821    0.8986    0.0000 C.3     1  UNL1        0.0791
     27 H           8.1837   -0.0140    0.0000 H       1  UNL1        0.0386
     28 H           7.6466   -1.2116    0.0000 H       1  UNL1        0.0321
     29 H           8.0537   -0.5249    0.0000 H       1  UNL1        0.0321
     30 H           6.9453    1.4121    0.0000 H       1  UNL1        0.0703
     31 H           6.1470    1.4090    0.0000 H       1  UNL1        0.0703
     32 H           7.0690   -2.4432    0.0000 H       1  UNL1        0.0623
     33 H           3.9132    0.0215    0.0000 H       1  UNL1        0.0624
     34 H           5.6660   -3.2532    0.0000 H       1  UNL1        0.0654
     35 H           2.4643   -0.8003    0.0000 H       1  UNL1        0.0611
     36 H           7.7862    2.2240    0.0000 H       1  UNL1        0.0623
     37 H           1.9652   -2.7140    0.0000 H       1  UNL1        0.0271
     38 H           1.9976   -1.5378    0.0000 H       1  UNL1        0.0271
     39 H           1.3800   -2.1602    0.0000 H       1  UNL1        0.0271
     40 H           2.0024   -2.7778    0.0000 H       1  UNL1        0.0271
     41 H           2.1954   -3.5600    0.0000 H       1  UNL1        0.0271
     42 H           3.0415   -3.3298    0.0000 H       1  UNL1        0.0271
     43 H           9.1922    3.0286    0.0000 H       1  UNL1        0.0655
     44 H           9.7140   -0.9034    0.0000 H       1  UNL1        0.2923
     45 H          10.9243    3.0219    0.0000 H       1  UNL1        0.2923
     46 H          12.0900    0.3605    0.0000 H       1  UNL1        0.0660
     47 H          12.3202    1.2065    0.0000 H       1  UNL1        0.0660
     48 H          11.4742    1.4367    0.0000 H       1  UNL1        0.0660
@<TRIPOS>BOND
     1     1     9    1
     2     1    10    1
     3     2    13    1
     4     2    14    1
     5     3    19    1
     6     3    44    1
     7     4    23    1
     8     4    26    1
     9     5    25    1
    10     5    45    1
    11     6     7    1
    12     6     9    1
    13     6    11    1
    14     6    27    1
    15     7     8    1
    16     7    28    1
    17     7    29    1
    18     8    10   ar
    19     8    15   ar
    20     9    30    1
    21     9    31    1
    22    10    12   ar
    23    11    19   ar
    24    11    20   ar
    25    12    14   ar
    26    12    16    1
    27    13    18    1
    28    13    21    1
    29    13    22    1
    30    14    17   ar
    31    15    17   ar
    32    15    32    1
    33    16    18    2
    34    16    33    1
    35    17    34    1
    36    18    35    1
    37    19    23   ar
    38    20    24   ar
    39    20    36    1
    40    21    38    1
    41    21    39    1
    42    21    40    1
    43    22    37    1
    44    22    41    1
    45    22    42    1
    46    23    25   ar
    47    24    25   ar
    48    24    43    1
    49    26    46    1
    50    26    47    1
    51    26    48    1
