@<TRIPOS>MOLECULE
IMPHY011171
 75 80 0 0 0
SMALL
GASTEIGER

@<TRIPOS>ATOM
      1 O           6.8383   -1.1905    0.0000 O.3     1  UNL1       -0.3633
      2 O          10.2824   -1.6793    0.0000 O.3     1  UNL1       -0.4602
      3 O           3.8185   -1.0137    0.0000 O.3     1  UNL1       -0.4559
      4 O           7.9806    2.9286    0.0000 O.2     1  UNL1       -0.2963
      5 O          10.7395    2.6119    0.0000 O.3     1  UNL1       -0.3803
      6 O           4.3137   -2.7527    0.0000 O.2     1  UNL1       -0.2508
      7 O          12.7368    2.5072    0.0000 O.3     1  UNL1       -0.4661
      8 O          12.6461    0.7776    0.0000 O.2     1  UNL1       -0.2479
      9 O           2.0000    1.5164    0.0000 O.2     1  UNL1       -0.4706
     10 O          12.0121   -1.5886    0.0000 O.2     1  UNL1       -0.2512
     11 C           6.9084   -0.1925    0.0000 C.3     1  UNL1        0.1044
     12 C           7.1840    0.7688    0.0000 C.3     1  UNL1        0.0034
     13 C           7.7374   -0.7517    0.0000 C.3     1  UNL1        0.1019
     14 C           9.2172    1.0799    0.0000 C.3     1  UNL1        0.0385
     15 C           5.9017   -0.4600    0.0000 C.3     1  UNL1        0.0100
     16 C           8.9584    0.1140    0.0000 C.3     1  UNL1        0.0844
     17 C           5.1723    0.2837    0.0000 C.3     1  UNL1        0.0153
     18 C          10.6489    0.8822    0.0000 C.3     1  UNL1        0.0164
     19 C           6.4720    1.5291    0.0000 C.3     1  UNL1       -0.0460
     20 C           8.4806    2.0625    0.0000 C.2     1  UNL1        0.1491
     21 C          11.0072   -0.0513    0.0000 C.3     1  UNL1        0.0095
     22 C          10.2301   -0.6807    0.0000 C.3     1  UNL1        0.1205
     23 C           5.4594    1.2849    0.0000 C.3     1  UNL1       -0.0432
     24 C           5.6268   -1.5096    0.0000 C.3     1  UNL1        0.0511
     25 C           9.4761    2.0458    0.0000 C.3     1  UNL1       -0.0521
     26 C           4.1176    0.0293    0.0000 C.3     1  UNL1        0.1366
     27 C          11.1935    1.7209    0.0000 C.3     1  UNL1        0.1558
     28 C           4.4722    0.9976    0.0000 C.3     1  UNL1       -0.0555
     29 C          11.9732    0.2075    0.0000 C.3     1  UNL1       -0.0560
     30 C          11.7144   -0.7584    0.0000 C.3     1  UNL1       -0.0560
     31 C           4.5782   -1.7883    0.0000 C.2     1  UNL1        0.3081
     32 C           3.4257    0.7513    0.0000 C.ar    1  UNL1        0.0309
     33 C          12.1921    1.6686    0.0000 C.2     1  UNL1        0.3361
     34 C          11.1734   -2.1333    0.0000 C.2     1  UNL1        0.3042
     35 C           3.6031    1.7354    0.0000 C.ar    1  UNL1       -0.0172
     36 C           2.4349    0.6160    0.0000 C.ar    1  UNL1        0.0984
     37 C          11.2258   -3.1319    0.0000 C.3     1  UNL1        0.0332
     38 C           2.7220    2.2083    0.0000 C.ar    1  UNL1        0.0921
     39 C          13.7354    2.4549    0.0000 C.3     1  UNL1        0.0817
     40 H           7.4183    1.5858    0.0000 H       1  UNL1        0.0339
     41 H           8.4421   -1.2270    0.0000 H       1  UNL1        0.0633
     42 H           6.5038   -1.0600    0.0000 H       1  UNL1        0.0341
     43 H           8.7384   -0.7070    0.0000 H       1  UNL1        0.0441
     44 H          11.4942    0.7934    0.0000 H       1  UNL1        0.0347
     45 H           6.9905    1.8692    0.0000 H       1  UNL1        0.0269
     46 H           6.2257    2.0981    0.0000 H       1  UNL1        0.0269
     47 H          10.7965   -0.9328    0.0000 H       1  UNL1        0.0747
     48 H           5.4194    1.9036    0.0000 H       1  UNL1        0.0272
     49 H           4.8430    1.3513    0.0000 H       1  UNL1        0.0272
     50 H           5.6812   -2.1272    0.0000 H       1  UNL1        0.0381
     51 H           6.2446   -1.5618    0.0000 H       1  UNL1        0.0381
     52 H          10.0749    1.8854    0.0000 H       1  UNL1        0.0239
     53 H           9.6365    2.6447    0.0000 H       1  UNL1        0.0239
     54 H           8.8772    2.2063    0.0000 H       1  UNL1        0.0239
     55 H           3.5157   -0.1195    0.0000 H       1  UNL1        0.0792
     56 H          11.5312    2.2409    0.0000 H       1  UNL1        0.0713
     57 H           4.9148    1.4317    0.0000 H       1  UNL1        0.0236
     58 H           4.0380    1.4403    0.0000 H       1  UNL1        0.0236
     59 H           4.0295    0.5635    0.0000 H       1  UNL1        0.0236
     60 H          11.2759   -1.1968    0.0000 H       1  UNL1        0.0236
     61 H          12.1528   -1.1968    0.0000 H       1  UNL1        0.0236
     62 H          12.1528   -0.3200    0.0000 H       1  UNL1        0.0236
     63 H          12.1336   -0.3914    0.0000 H       1  UNL1        0.0236
     64 H          12.5720    0.3680    0.0000 H       1  UNL1        0.0236
     65 H          11.8127    0.8064    0.0000 H       1  UNL1        0.0236
     66 H          11.0772    3.1319    0.0000 H       1  UNL1        0.2105
     67 H           4.1614    2.0051    0.0000 H       1  UNL1        0.0653
     68 H           2.1417    0.0697    0.0000 H       1  UNL1        0.1033
     69 H          10.6066   -3.1644    0.0000 H       1  UNL1        0.0342
     70 H          11.2582   -3.7510    0.0000 H       1  UNL1        0.0342
     71 H          11.8449   -3.0994    0.0000 H       1  UNL1        0.0342
     72 H           2.6381    2.8226    0.0000 H       1  UNL1        0.1029
     73 H          13.7030    1.8358    0.0000 H       1  UNL1        0.0661
     74 H          14.3546    2.4225    0.0000 H       1  UNL1        0.0661
     75 H          13.7679    3.0741    0.0000 H       1  UNL1        0.0661
@<TRIPOS>BOND
     1    11     1    1
     2     1    13    1
     3    22     2    1
     4     2    34    1
     5     3    26    1
     6     3    31    1
     7     4    20    2
     8    27     5    1
     9     5    66    1
    10     6    31    2
    11     7    33    1
    12     7    39    1
    13     8    33    2
    14     9    36   ar
    15     9    38   ar
    16    10    34    2
    17    11    12    1
    18    11    13    1
    19    11    15    1
    20    12    14    1
    21    12    19    1
    22    12    40    1
    23    13    16    1
    24    13    41    1
    25    14    18    1
    26    14    20    1
    27    14    25    1
    28    15    17    1
    29    15    24    1
    30    15    42    1
    31    16    20    1
    32    16    22    1
    33    16    43    1
    34    17    23    1
    35    17    26    1
    36    17    28    1
    37    18    21    1
    38    18    27    1
    39    18    44    1
    40    19    23    1
    41    19    45    1
    42    19    46    1
    43    21    22    1
    44    21    29    1
    45    21    30    1
    46    22    47    1
    47    23    48    1
    48    23    49    1
    49    24    31    1
    50    24    50    1
    51    24    51    1
    52    25    52    1
    53    25    53    1
    54    25    54    1
    55    26    32    1
    56    26    55    1
    57    27    33    1
    58    27    56    1
    59    28    57    1
    60    28    58    1
    61    28    59    1
    62    29    63    1
    63    29    64    1
    64    29    65    1
    65    30    60    1
    66    30    61    1
    67    30    62    1
    68    32    35   ar
    69    32    36   ar
    70    34    37    1
    71    35    38   ar
    72    35    67    1
    73    36    68    1
    74    37    69    1
    75    37    70    1
    76    37    71    1
    77    38    72    1
    78    39    73    1
    79    39    74    1
    80    39    75    1
