@<TRIPOS>MOLECULE
IMPHY012162
 17 16 0 0 0
SMALL
GASTEIGER

@<TRIPOS>ATOM
      1 O           4.2690   -0.5950    0.0000 O.3     1  UNL1       -0.3895
      2 O           2.5369    0.4050    0.0000 O.3     1  UNL1       -0.3925
      3 O           6.8671    0.9050    0.0000 O.3     1  UNL1       -0.3949
      4 C           4.2690    0.4050    0.0000 C.3     1  UNL1        0.0803
      5 C           5.1350    0.9050    0.0000 C.3     1  UNL1       -0.0014
      6 C           3.4030    0.9050    0.0000 C.3     1  UNL1        0.0702
      7 C           6.0010    0.4050    0.0000 C.3     1  UNL1        0.0466
      8 H           4.8059    0.0950    0.0000 H       1  UNL1        0.0617
      9 H           5.5335    1.3800    0.0000 H       1  UNL1        0.0313
     10 H           4.7365    1.3800    0.0000 H       1  UNL1        0.0313
     11 H           3.8015    1.3800    0.0000 H       1  UNL1        0.0583
     12 H           3.0044    1.3800    0.0000 H       1  UNL1        0.0583
     13 H           5.6025   -0.0699    0.0000 H       1  UNL1        0.0558
     14 H           6.3996   -0.0699    0.0000 H       1  UNL1        0.0558
     15 H           3.7320   -0.9050    0.0000 H       1  UNL1        0.2099
     16 H           2.0000    0.7150    0.0000 H       1  UNL1        0.2095
     17 H           7.4040    0.5950    0.0000 H       1  UNL1        0.2094
@<TRIPOS>BOND
     1     1     4    1
     2     1    15    1
     3     2     6    1
     4     2    16    1
     5     3     7    1
     6     3    17    1
     7     4     5    1
     8     4     6    1
     9     4     8    1
    10     5     7    1
    11     5     9    1
    12     5    10    1
    13     6    11    1
    14     6    12    1
    15     7    13    1
    16     7    14    1
