@<TRIPOS>MOLECULE
IMPHY005915
 50 55 0 0 0
SMALL
GASTEIGER

@<TRIPOS>ATOM
      1 O           3.8076    1.2965    0.0000 O.3     1  UNL1       -0.3897
      2 O           6.8764    2.2715    0.0000 O.3     1  UNL1       -0.4674
      3 O           8.1428    1.0898    0.0000 O.2     1  UNL1       -0.2501
      4 N           6.1798   -0.8575    0.0000 N.3     1  UNL1       -0.2896
      5 N           4.0899   -1.8130    0.0000 N.pl3   1  UNL1       -0.3383
      6 C           4.5153   -0.5037    0.0000 C.3     1  UNL1        0.0456
      7 C           6.4862    0.5840    0.0000 C.3     1  UNL1        0.1162
      8 C           5.9169   -0.0483    0.0000 C.3     1  UNL1        0.0308
      9 C           4.5142    0.5889    0.0000 C.3     1  UNL1        0.0844
     10 C           5.6105   -1.4898    0.0000 C.3     1  UNL1        0.0308
     11 C           4.7782   -1.3129    0.0000 C.3     1  UNL1        0.0483
     12 C           5.0846    0.1286    0.0000 C.3     1  UNL1       -0.0223
     13 C           6.7056   -2.4759    0.0000 C.3     1  UNL1        0.0024
     14 C           5.8734   -2.2990    0.0000 C.3     1  UNL1       -0.0278
     15 C           7.0121   -1.0344    0.0000 C.3     1  UNL1        0.0210
     16 C           3.6645   -0.5037    0.0000 C.ar    1  UNL1       -0.0160
     17 C           7.2750   -1.8436    0.0000 C.2     1  UNL1       -0.0554
     18 C           7.1685    1.3151    0.0000 C.2     1  UNL1        0.3177
     19 C           3.4016   -1.3129    0.0000 C.ar    1  UNL1        0.0313
     20 C           3.0952    0.1286    0.0000 C.ar    1  UNL1       -0.0561
     21 C           8.2531   -2.0515    0.0000 C.2     1  UNL1       -0.0864
     22 C           2.5693   -1.4898    0.0000 C.ar    1  UNL1       -0.0406
     23 C           2.2629   -0.0483    0.0000 C.ar    1  UNL1       -0.0614
     24 C           2.0000   -0.8575    0.0000 C.ar    1  UNL1       -0.0600
     25 C           8.5621   -3.0026    0.0000 C.3     1  UNL1       -0.0465
     26 C           7.5587    3.0026    0.0000 C.3     1  UNL1        0.0817
     27 H           5.7347    0.7819    0.0000 H       1  UNL1        0.0475
     28 H           4.7523    1.1613    0.0000 H       1  UNL1        0.0614
     29 H           5.2921   -2.2779    0.0000 H       1  UNL1        0.0481
     30 H           4.7788   -2.1629    0.0000 H       1  UNL1        0.0522
     31 H           5.3169    0.7034    0.0000 H       1  UNL1        0.0291
     32 H           4.5588    0.4571    0.0000 H       1  UNL1        0.0291
     33 H           6.9683   -3.2843    0.0000 H       1  UNL1        0.0358
     34 H           5.2594   -2.3853    0.0000 H       1  UNL1        0.0287
     35 H           5.8518   -2.9186    0.0000 H       1  UNL1        0.0287
     36 H           7.6260   -0.9481    0.0000 H       1  UNL1        0.0473
     37 H           7.0337   -0.4148    0.0000 H       1  UNL1        0.0473
     38 H           4.0951   -2.4330    0.0000 H       1  UNL1        0.1464
     39 H           3.9684    1.8953    0.0000 H       1  UNL1        0.2099
     40 H           3.2868    0.7182    0.0000 H       1  UNL1        0.0621
     41 H           8.6680   -1.5908    0.0000 H       1  UNL1        0.0569
     42 H           2.3777   -2.0795    0.0000 H       1  UNL1        0.0636
     43 H           1.8481    0.4124    0.0000 H       1  UNL1        0.0618
     44 H           1.3936   -0.9864    0.0000 H       1  UNL1        0.0618
     45 H           7.9725   -3.1942    0.0000 H       1  UNL1        0.0272
     46 H           8.7537   -3.5922    0.0000 H       1  UNL1        0.0272
     47 H           9.1518   -2.8110    0.0000 H       1  UNL1        0.0272
     48 H           8.0120    2.5796    0.0000 H       1  UNL1        0.0661
     49 H           7.9817    3.4559    0.0000 H       1  UNL1        0.0661
     50 H           7.1054    3.4256    0.0000 H       1  UNL1        0.0661
@<TRIPOS>BOND
     1     9     1    1
     2     1    39    1
     3     2    18    1
     4     2    26    1
     5     3    18    2
     6     4     8    1
     7     4    10    1
     8     4    15    1
     9     5    11    1
    10     5    19    1
    11     5    38    1
    12     6     9    1
    13     6    11    1
    14     6    12    1
    15     6    16    1
    16     7     8    1
    17     7     9    1
    18     7    13    1
    19     7    18    1
    20     8    12    1
    21     8    27    1
    22     9    28    1
    23    10    11    1
    24    10    14    1
    25    10    29    1
    26    11    30    1
    27    12    31    1
    28    12    32    1
    29    13    14    1
    30    13    17    1
    31    13    33    1
    32    14    34    1
    33    14    35    1
    34    15    17    1
    35    15    36    1
    36    15    37    1
    37    16    19   ar
    38    16    20   ar
    39    17    21    2
    40    19    22   ar
    41    20    23   ar
    42    20    40    1
    43    21    25    1
    44    21    41    1
    45    22    24   ar
    46    22    42    1
    47    23    24   ar
    48    23    43    1
    49    24    44    1
    50    25    45    1
    51    25    46    1
    52    25    47    1
    53    26    48    1
    54    26    49    1
    55    26    50    1
