@<TRIPOS>MOLECULE
IMPHY009233
 65 66 0 0 0
SMALL
GASTEIGER

@<TRIPOS>ATOM
      1 O           6.9653    2.3238    0.0000 O.2     1  UNL1       -0.5097
      2 O           8.6973   -0.6762    0.0000 O.2     1  UNL1       -0.5056
      3 O          10.4294    2.3238    0.0000 O.2     1  UNL1       -0.2908
      4 O           6.2812   -1.5556    0.0000 O.3     1  UNL1       -0.5055
      5 O          10.4294   -0.6762    0.0000 O.2     1  UNL1       -0.2915
      6 O           5.6797    1.8559    0.0000 O.3     1  UNL1       -0.5060
      7 O           3.0261   -0.3708    0.0000 O.3     1  UNL1       -0.5056
      8 O           4.9544   -2.6689    0.0000 O.2     1  UNL1       -0.2915
      9 C           8.6973    2.3238    0.0000 C.3     1  UNL1        0.0853
     10 C           7.8313    1.8238    0.0000 C.2     1  UNL1        0.1141
     11 C           7.8313    0.8238    0.0000 C.2     1  UNL1        0.0375
     12 C           9.5634    1.8238    0.0000 C.2     1  UNL1        0.1829
     13 C           9.5634    0.8238    0.0000 C.2     1  UNL1        0.1026
     14 C           6.9653    0.3238    0.0000 C.3     1  UNL1        0.0112
     15 C           9.1973    3.1898    0.0000 C.3     1  UNL1       -0.0458
     16 C           8.1973    3.1898    0.0000 C.3     1  UNL1       -0.0458
     17 C           8.6973    0.3238    0.0000 C.2     1  UNL1        0.1374
     18 C           5.9805    0.1502    0.0000 C.ar    1  UNL1        0.0411
     19 C          10.4294    0.3238    0.0000 C.2     1  UNL1        0.1726
     20 C          11.2954    0.8238    0.0000 C.3     1  UNL1        0.0167
     21 C           5.6384   -0.7894    0.0000 C.ar    1  UNL1        0.1378
     22 C           4.6537   -0.9632    0.0000 C.ar    1  UNL1        0.1011
     23 C           5.3377    0.9162    0.0000 C.ar    1  UNL1        0.1302
     24 C           3.3268   -2.0765    0.0000 C.3     1  UNL1        0.0193
     25 C           4.3529    0.7426    0.0000 C.ar    1  UNL1        0.0335
     26 C           4.3116   -1.9028    0.0000 C.2     1  UNL1        0.1730
     27 C           4.0109   -0.1971    0.0000 C.ar    1  UNL1        0.1372
     28 C           2.9847   -3.0161    0.0000 C.3     1  UNL1       -0.0463
     29 C          12.1614    0.3238    0.0000 C.3     1  UNL1       -0.0556
     30 C          11.2954    1.8238    0.0000 C.3     1  UNL1       -0.0556
     31 C           2.6840   -1.3105    0.0000 C.3     1  UNL1       -0.0554
     32 C           3.7101    1.5086    0.0000 C.3     1  UNL1       -0.0327
     33 C           2.0000   -3.1898    0.0000 C.3     1  UNL1       -0.0646
     34 H           6.8223   -0.2795    0.0000 H       1  UNL1        0.0366
     35 H           6.7532    0.9064    0.0000 H       1  UNL1        0.0366
     36 H           8.7343    3.4998    0.0000 H       1  UNL1        0.0243
     37 H           7.8873    3.7268    0.0000 H       1  UNL1        0.0243
     38 H           7.6604    2.8798    0.0000 H       1  UNL1        0.0243
     39 H           9.7343    2.8798    0.0000 H       1  UNL1        0.0243
     40 H           9.5073    3.7268    0.0000 H       1  UNL1        0.0243
     41 H           8.6604    3.4998    0.0000 H       1  UNL1        0.0243
     42 H          11.8324    1.1338    0.0000 H       1  UNL1        0.0375
     43 H           3.5389   -1.4939    0.0000 H       1  UNL1        0.0378
     44 H           6.4284    2.0138    0.0000 H       1  UNL1        0.2917
     45 H           2.9848   -3.6361    0.0000 H       1  UNL1        0.0269
     46 H           3.5953   -3.1238    0.0000 H       1  UNL1        0.0269
     47 H           9.2343   -0.9862    0.0000 H       1  UNL1        0.2922
     48 H          11.9154    1.8238    0.0000 H       1  UNL1        0.0236
     49 H          11.2954    2.4438    0.0000 H       1  UNL1        0.0236
     50 H          10.6754    1.8238    0.0000 H       1  UNL1        0.0236
     51 H          11.8514   -0.2131    0.0000 H       1  UNL1        0.0236
     52 H          12.6984    0.0138    0.0000 H       1  UNL1        0.0236
     53 H          12.4714    0.8608    0.0000 H       1  UNL1        0.0236
     54 H           3.1590   -0.9119    0.0000 H       1  UNL1        0.0237
     55 H           2.2855   -0.8355    0.0000 H       1  UNL1        0.0237
     56 H           2.2091   -1.7090    0.0000 H       1  UNL1        0.0237
     57 H           4.1851    1.9071    0.0000 H       1  UNL1        0.0280
     58 H           3.3116    1.9836    0.0000 H       1  UNL1        0.0280
     59 H           3.2352    1.1101    0.0000 H       1  UNL1        0.0280
     60 H           1.8923   -2.5793    0.0000 H       1  UNL1        0.0230
     61 H           1.3894   -3.2976    0.0000 H       1  UNL1        0.0230
     62 H           2.1077   -3.8004    0.0000 H       1  UNL1        0.0230
     63 H           6.0692   -2.1382    0.0000 H       1  UNL1        0.2922
     64 H           5.2812    2.3309    0.0000 H       1  UNL1        0.2922
     65 H           2.6275    0.1042    0.0000 H       1  UNL1        0.2922
@<TRIPOS>BOND
     1     1    10    1
     2     1    44    1
     3     2    17    1
     4     2    47    1
     5     3    12    2
     6     4    21    1
     7     4    63    1
     8     5    19    2
     9     6    23    1
    10     6    64    1
    11     7    27    1
    12     7    65    1
    13     8    26    2
    14     9    10    1
    15     9    12    1
    16     9    15    1
    17     9    16    1
    18    10    11    2
    19    11    14    1
    20    11    17    1
    21    12    13    1
    22    13    17    2
    23    13    19    1
    24    14    18    1
    25    14    34    1
    26    14    35    1
    27    15    39    1
    28    15    40    1
    29    15    41    1
    30    16    36    1
    31    16    37    1
    32    16    38    1
    33    18    21   ar
    34    18    23   ar
    35    19    20    1
    36    20    29    1
    37    20    30    1
    38    20    42    1
    39    21    22   ar
    40    22    26    1
    41    22    27   ar
    42    23    25   ar
    43    24    26    1
    44    24    28    1
    45    24    31    1
    46    24    43    1
    47    25    27   ar
    48    25    32    1
    49    28    33    1
    50    28    45    1
    51    28    46    1
    52    29    51    1
    53    29    52    1
    54    29    53    1
    55    30    48    1
    56    30    49    1
    57    30    50    1
    58    31    54    1
    59    31    55    1
    60    31    56    1
    61    32    57    1
    62    32    58    1
    63    32    59    1
    64    33    60    1
    65    33    61    1
    66    33    62    1
