@<TRIPOS>MOLECULE
IMPHY000813
 34 35 0 0 0
SMALL
GASTEIGER

@<TRIPOS>ATOM
      1 O           3.4030    0.5950    0.0000 O.2     1  UNL1       -0.2918
      2 O           2.5369   -0.9050    0.0000 O.3     1  UNL1       -0.5058
      3 O           6.0010   -0.9050    0.0000 O.3     1  UNL1       -0.5058
      4 O           4.2690   -3.9050    0.0000 O.3     1  UNL1       -0.5065
      5 O           8.5991    3.5950    0.0000 O.3     1  UNL1       -0.5068
      6 C           5.1350    1.5950    0.0000 C.3     1  UNL1       -0.0207
      7 C           5.1350    0.5950    0.0000 C.3     1  UNL1        0.0147
      8 C           6.0010    2.0950    0.0000 C.ar    1  UNL1       -0.0467
      9 C           4.2690    0.0950    0.0000 C.2     1  UNL1        0.1705
     10 C           4.2690   -0.9050    0.0000 C.ar    1  UNL1        0.1003
     11 C           6.8671    1.5950    0.0000 C.ar    1  UNL1       -0.0551
     12 C           6.0010    3.0950    0.0000 C.ar    1  UNL1       -0.0551
     13 C           3.4030   -1.4050    0.0000 C.ar    1  UNL1        0.1343
     14 C           5.1350   -1.4050    0.0000 C.ar    1  UNL1        0.1343
     15 C           3.4030   -2.4050    0.0000 C.ar    1  UNL1        0.0222
     16 C           5.1350   -2.4050    0.0000 C.ar    1  UNL1        0.0222
     17 C           7.7331    2.0950    0.0000 C.ar    1  UNL1       -0.0199
     18 C           6.8671    3.5950    0.0000 C.ar    1  UNL1       -0.0199
     19 C           4.2690   -2.9050    0.0000 C.ar    1  UNL1        0.1238
     20 C           7.7331    3.0950    0.0000 C.ar    1  UNL1        0.1169
     21 H           4.9230    2.1776    0.0000 H       1  UNL1        0.0317
     22 H           4.5244    1.4873    0.0000 H       1  UNL1        0.0317
     23 H           5.3471    0.0124    0.0000 H       1  UNL1        0.0348
     24 H           5.7456    0.7027    0.0000 H       1  UNL1        0.0348
     25 H           6.8671    0.9750    0.0000 H       1  UNL1        0.0621
     26 H           5.4641    3.4050    0.0000 H       1  UNL1        0.0621
     27 H           2.8660   -2.7150    0.0000 H       1  UNL1        0.0691
     28 H           5.6720   -2.7150    0.0000 H       1  UNL1        0.0691
     29 H           8.2700    1.7850    0.0000 H       1  UNL1        0.0654
     30 H           6.8671    4.2150    0.0000 H       1  UNL1        0.0654
     31 H           2.0000   -1.2150    0.0000 H       1  UNL1        0.2922
     32 H           6.5380   -1.2150    0.0000 H       1  UNL1        0.2922
     33 H           3.7320   -4.2150    0.0000 H       1  UNL1        0.2921
     34 H           8.5991    4.2150    0.0000 H       1  UNL1        0.2921
@<TRIPOS>BOND
     1     1     9    2
     2     2    13    1
     3     2    31    1
     4     3    14    1
     5     3    32    1
     6     4    19    1
     7     4    33    1
     8     5    20    1
     9     5    34    1
    10     6     7    1
    11     6     8    1
    12     6    21    1
    13     6    22    1
    14     7     9    1
    15     7    23    1
    16     7    24    1
    17     8    11   ar
    18     8    12   ar
    19     9    10    1
    20    10    13   ar
    21    10    14   ar
    22    11    17   ar
    23    11    25    1
    24    12    18   ar
    25    12    26    1
    26    13    15   ar
    27    14    16   ar
    28    15    19   ar
    29    15    27    1
    30    16    19   ar
    31    16    28    1
    32    17    20   ar
    33    17    29    1
    34    18    20   ar
    35    18    30    1
