@<TRIPOS>MOLECULE
IMPHY004071
 64 68 0 0 0
SMALL
GASTEIGER

@<TRIPOS>ATOM
      1 O           7.9288   -1.6474    0.0000 O.3     1  UNL1       -0.3877
      2 O           5.2710   -3.1958    0.0000 O.3     1  UNL1       -0.3879
      3 O           5.3307    0.8526    0.0000 O.3     1  UNL1       -0.3915
      4 O           4.4323    0.3524    0.0000 O.3     1  UNL1       -0.3944
      5 O           2.5357   -2.6997    0.0000 O.3     1  UNL1       -0.3917
      6 O           9.1885    3.2259    0.0000 O.3     1  UNL1       -0.4571
      7 O          10.9491    3.5016    0.0000 O.2     1  UNL1       -0.2456
      8 C           7.0628   -1.1474    0.0000 C.3     1  UNL1       -0.0057
      9 C           6.1968   -0.6474    0.0000 C.3     1  UNL1        0.0008
     10 C           7.9288   -0.6474    0.0000 C.3     1  UNL1        0.0752
     11 C           7.9288    0.3526    0.0000 C.3     1  UNL1        0.0059
     12 C           5.2868   -1.1542    0.0000 C.3     1  UNL1        0.0282
     13 C           5.2787   -2.1958    0.0000 C.3     1  UNL1        0.0765
     14 C           6.1968    0.3526    0.0000 C.3     1  UNL1        0.0597
     15 C           7.0628    0.8526    0.0000 C.3     1  UNL1       -0.0180
     16 C           8.8750    0.6574    0.0000 C.3     1  UNL1       -0.0080
     17 C           7.0789   -2.1889    0.0000 C.3     1  UNL1       -0.0446
     18 C           8.8750   -0.9521    0.0000 C.3     1  UNL1       -0.0226
     19 C           6.1808   -2.7166    0.0000 C.3     1  UNL1       -0.0230
     20 C           9.4586   -0.1474    0.0000 C.3     1  UNL1       -0.0432
     21 C           4.3599   -0.5901    0.0000 C.3     1  UNL1       -0.0400
     22 C           4.3433   -2.7455    0.0000 C.3     1  UNL1        0.0027
     23 C           7.9288    1.3526    0.0000 C.3     1  UNL1       -0.0563
     24 C           5.2945   -0.1542    0.0000 C.3     1  UNL1        0.0528
     25 C           3.4120   -1.1181    0.0000 C.3     1  UNL1       -0.0261
     26 C           3.4037   -2.2030    0.0000 C.3     1  UNL1        0.0579
     27 C           9.1857    1.6079    0.0000 C.2     1  UNL1       -0.0222
     28 C           8.5993    2.4179    0.0000 C.3     1  UNL1        0.1147
     29 C          10.1373    1.9152    0.0000 C.2     1  UNL1        0.0252
     30 C          10.1390    2.9152    0.0000 C.2     1  UNL1        0.3323
     31 H           7.8022   -1.5667    0.0000 H       1  UNL1        0.0332
     32 H           6.9329   -0.2224    0.0000 H       1  UNL1        0.0336
     33 H           6.1968    0.9726    0.0000 H       1  UNL1        0.0596
     34 H           7.4613    1.3276    0.0000 H       1  UNL1        0.0296
     35 H           6.6643    1.3276    0.0000 H       1  UNL1        0.0296
     36 H           9.4875    0.7536    0.0000 H       1  UNL1        0.0353
     37 H           7.2969   -2.7693    0.0000 H       1  UNL1        0.0270
     38 H           7.6880   -2.0734    0.0000 H       1  UNL1        0.0270
     39 H           8.6240   -1.5190    0.0000 H       1  UNL1        0.0293
     40 H           9.4124   -1.2613    0.0000 H       1  UNL1        0.0293
     41 H           5.7835   -3.1926    0.0000 H       1  UNL1        0.0293
     42 H           6.5818   -3.1895    0.0000 H       1  UNL1        0.0293
     43 H           9.9195   -0.5621    0.0000 H       1  UNL1        0.0272
     44 H           9.9195    0.2674    0.0000 H       1  UNL1        0.0272
     45 H           4.7681   -0.1235    0.0000 H       1  UNL1        0.0273
     46 H           3.9700   -0.1081    0.0000 H       1  UNL1        0.0273
     47 H           3.9460   -3.2215    0.0000 H       1  UNL1        0.0318
     48 H           4.7443   -3.2184    0.0000 H       1  UNL1        0.0318
     49 H           8.5488    1.3526    0.0000 H       1  UNL1        0.0236
     50 H           7.9288    1.9726    0.0000 H       1  UNL1        0.0236
     51 H           7.3088    1.3526    0.0000 H       1  UNL1        0.0236
     52 H           5.9042   -0.2666    0.0000 H       1  UNL1        0.0564
     53 H           5.5110    0.4267    0.0000 H       1  UNL1        0.0564
     54 H           3.2075   -0.5328    0.0000 H       1  UNL1        0.0290
     55 H           2.8004   -1.2195    0.0000 H       1  UNL1        0.0290
     56 H           3.4025   -2.8230    0.0000 H       1  UNL1        0.0594
     57 H           8.4658   -1.9574    0.0000 H       1  UNL1        0.2102
     58 H           4.7317   -3.5016    0.0000 H       1  UNL1        0.2102
     59 H           5.3307    1.4726    0.0000 H       1  UNL1        0.2098
     60 H           8.1393    2.8336    0.0000 H       1  UNL1        0.0746
     61 H           8.1378    2.0038    0.0000 H       1  UNL1        0.0746
     62 H           4.4371    0.9724    0.0000 H       1  UNL1        0.2094
     63 H          10.6383    1.5500    0.0000 H       1  UNL1        0.0689
     64 H           2.0000   -2.3876    0.0000 H       1  UNL1        0.2098
@<TRIPOS>BOND
     1     1    10    1
     2     1    57    1
     3    13     2    1
     4     2    58    1
     5    14     3    1
     6     3    59    1
     7     4    24    1
     8     4    62    1
     9    26     5    1
    10     5    64    1
    11     6    28    1
    12     6    30    1
    13     7    30    2
    14     8     9    1
    15     8    10    1
    16     8    17    1
    17     8    31    1
    18     9    12    1
    19     9    14    1
    20     9    32    1
    21    10    11    1
    22    10    18    1
    23    11    15    1
    24    11    16    1
    25    11    23    1
    26    12    13    1
    27    12    21    1
    28    12    24    1
    29    13    19    1
    30    13    22    1
    31    14    15    1
    32    14    33    1
    33    15    34    1
    34    15    35    1
    35    16    20    1
    36    16    27    1
    37    16    36    1
    38    17    19    1
    39    17    37    1
    40    17    38    1
    41    18    20    1
    42    18    39    1
    43    18    40    1
    44    19    41    1
    45    19    42    1
    46    20    43    1
    47    20    44    1
    48    21    25    1
    49    21    45    1
    50    21    46    1
    51    22    26    1
    52    22    47    1
    53    22    48    1
    54    23    49    1
    55    23    50    1
    56    23    51    1
    57    24    52    1
    58    24    53    1
    59    25    26    1
    60    25    54    1
    61    25    55    1
    62    26    56    1
    63    27    28    1
    64    27    29    2
    65    28    60    1
    66    28    61    1
    67    29    30    1
    68    29    63    1
