@<TRIPOS>MOLECULE
IMPHY014737
 43 46 0 0 0
SMALL
GASTEIGER

@<TRIPOS>ATOM
      1 O           4.2528    1.2144    0.0000 O.3     1  UNL1       -0.3822
      2 N           6.6882   -0.3862    0.0000 N.3     1  UNL1       -0.2942
      3 N           3.2922   -0.3262    0.0000 N.ar    1  UNL1       -0.3554
      4 C           6.9470    0.5797    0.0000 C.3     1  UNL1        0.0166
      5 C           4.9284    0.4772    0.0000 C.3     1  UNL1        0.1096
      6 C           8.3460    0.0709    0.0000 C.3     1  UNL1       -0.0306
      7 C           6.5764    1.9284    0.0000 C.2     1  UNL1       -0.0536
      8 C           8.0872   -0.8950    0.0000 C.3     1  UNL1        0.0002
      9 C           4.2856   -0.2889    0.0000 C.ar    1  UNL1        0.0537
     10 C           5.7104    1.4284    0.0000 C.3     1  UNL1        0.0207
     11 C           5.6124   -1.4022    0.0000 C.3     1  UNL1        0.0267
     12 C           4.6276   -1.2286    0.0000 C.ar    1  UNL1       -0.0023
     13 C           4.9720    1.4762    0.0000 C.3     1  UNL1       -0.0299
     14 C           3.8427   -1.8386    0.0000 C.ar    1  UNL1        0.0044
     15 C           3.0190   -1.2820    0.0000 C.ar    1  UNL1        0.0470
     16 C           6.8353    2.8943    0.0000 C.2     1  UNL1       -0.0863
     17 C           3.7855   -2.8724    0.0000 C.ar    1  UNL1       -0.0523
     18 C           2.0811   -1.7207    0.0000 C.ar    1  UNL1       -0.0378
     19 C           7.8012    3.1531    0.0000 C.3     1  UNL1       -0.0465
     20 C           2.8579   -3.3327    0.0000 C.ar    1  UNL1       -0.0611
     21 C           2.0000   -2.7529    0.0000 C.ar    1  UNL1       -0.0598
     22 H           7.1670    1.4008    0.0000 H       1  UNL1        0.0378
     23 H           8.9399   -0.1068    0.0000 H       1  UNL1        0.0284
     24 H           8.5409    0.6595    0.0000 H       1  UNL1        0.0284
     25 H           7.8922   -1.4836    0.0000 H       1  UNL1        0.0427
     26 H           8.6811   -1.0728    0.0000 H       1  UNL1        0.0427
     27 H           5.4057    1.9683    0.0000 H       1  UNL1        0.0473
     28 H           5.1675    1.1289    0.0000 H       1  UNL1        0.0473
     29 H           5.3780   -1.9762    0.0000 H       1  UNL1        0.0477
     30 H           6.1238   -1.7527    0.0000 H       1  UNL1        0.0477
     31 H           5.5914    1.4492    0.0000 H       1  UNL1        0.0261
     32 H           4.9990    2.0956    0.0000 H       1  UNL1        0.0261
     33 H           4.3526    1.5032    0.0000 H       1  UNL1        0.0261
     34 H           2.9096    0.1618    0.0000 H       1  UNL1        0.1657
     35 H           6.3968    3.3327    0.0000 H       1  UNL1        0.0569
     36 H           4.4392    1.8057    0.0000 H       1  UNL1        0.2107
     37 H           4.3032   -3.2136    0.0000 H       1  UNL1        0.0624
     38 H           1.5714   -1.3676    0.0000 H       1  UNL1        0.0638
     39 H           7.9616    2.5543    0.0000 H       1  UNL1        0.0272
     40 H           8.4001    3.3136    0.0000 H       1  UNL1        0.0272
     41 H           7.6407    3.7520    0.0000 H       1  UNL1        0.0272
     42 H           2.8165   -3.9513    0.0000 H       1  UNL1        0.0618
     43 H           1.4415   -3.0221    0.0000 H       1  UNL1        0.0618
@<TRIPOS>BOND
     1     5     1    1
     2     1    36    1
     3     2     8    1
     4     2    10    1
     5     2    11    1
     6     3     9   ar
     7     3    15   ar
     8     3    34    1
     9     4     5    1
    10     4     6    1
    11     4     7    1
    12     4    22    1
    13     5     9    1
    14     5    13    1
    15     6     8    1
    16     6    23    1
    17     6    24    1
    18     7    10    1
    19     7    16    2
    20     8    25    1
    21     8    26    1
    22     9    12   ar
    23    10    27    1
    24    10    28    1
    25    11    12    1
    26    11    29    1
    27    11    30    1
    28    12    14   ar
    29    13    31    1
    30    13    32    1
    31    13    33    1
    32    14    15   ar
    33    14    17   ar
    34    15    18   ar
    35    16    19    1
    36    16    35    1
    37    17    20   ar
    38    17    37    1
    39    18    21   ar
    40    18    38    1
    41    19    39    1
    42    19    40    1
    43    19    41    1
    44    20    21   ar
    45    20    42    1
    46    21    43    1
