@<TRIPOS>MOLECULE
IMPHY002368
 27 30 0 0 0
SMALL
GASTEIGER

@<TRIPOS>ATOM
      1 C           4.3402    3.2159    0.0000 C.3     1  UNL1        0.0611
      2 C           5.3223    3.1438    0.0000 C.3     1  UNL1        0.1762
      3 C           3.9138    4.1026    0.0000 C.3     1  UNL1        0.0255
      4 C           3.9138    2.3355    0.0000 C.3     1  UNL1        0.0433
      5 C           4.9384    2.0577    0.0000 C.2     1  UNL1       -0.0312
      6 C           5.8781    3.9520    0.0000 C.3     1  UNL1        0.0585
      7 O           6.1348    1.1328    0.0000 O.3     1  UNL1       -0.4516
      8 C           2.9571    4.3190    0.0000 C.2     1  UNL1       -0.0419
      9 C           4.4674    4.9172    0.0000 C.3     1  UNL1        0.0049
     10 C           2.9571    2.1213    0.0000 C.3     1  UNL1        0.1805
     11 C           6.2472    2.7789    0.0000 C.2     1  UNL1       -0.0449
     12 C           5.4475    4.8387    0.0000 C.3     1  UNL1        0.0080
     13 C           6.9557    0.6173    0.0000 C.2     1  UNL1        0.3175
     14 C           2.1934    3.7080    0.0000 C.3     1  UNL1        0.0514
     15 C           2.7237    5.1505    0.0000 C.2     1  UNL1       -0.0091
     16 C           2.1934    2.7280    0.0000 C.3     1  UNL1        0.1599
     17 O           2.7683    1.3385    0.0000 O.3     1  UNL1       -0.2205
     18 C           7.3354    2.5753    0.0000 C.3     1  UNL1        0.0261
     19 O           7.4245    0.9800    0.0000 O.2     1  UNL1       -0.2501
     20 C           6.6227    0.0000    0.0000 C.3     1  UNL1        0.1212
     21 C           1.2622    4.0135    0.0000 C.3     1  UNL1        0.0395
     22 C           1.2622    2.4225    0.0000 C.3     1  UNL1        0.0566
     23 O           2.1043    2.0577    0.0000 O.3     1  UNL1       -0.2227
     24 C           0.6852    3.2222    0.0000 C.3     1  UNL1        0.1546
     25 C           0.4412    1.8052    0.0000 C.3     1  UNL1        0.0051
     26 C           1.5952    1.7501    0.0000 C.3     1  UNL1        0.0051
     27 O           0.0000    3.2944    0.0000 O.3     1  UNL1       -0.2231
@<TRIPOS>BOND
     1     1     2    1
     2     1     3    1
     3     1     4    1
     4     1     5    1
     5     2     6    1
     6     2     7    1
     7     3     8    1
     8     3     9    1
     9     4    10    1
    10     5    11    2
    11     6    11    1
    12     6    12    1
    13     7    13    1
    14     8    15    2
    15     9    12    1
    16    10    16    1
    17    10    17    1
    18    11    18    1
    19    13    19    2
    20    13    20    1
    21    14     8    1
    22    14    16    1
    23    14    21    1
    24    16    22    1
    25    16    23    1
    26    21    24    1
    27    22    24    1
    28    22    25    1
    29    22    26    1
    30    24    27    1
