@<TRIPOS>MOLECULE
IMPHY006733
 54 59 0 0 0
SMALL
GASTEIGER

@<TRIPOS>ATOM
      1 O           6.3423    1.6778    0.0000 O.3     1  UNL1       -0.3191
      2 O           4.6512   -0.7913    0.0000 O.3     1  UNL1       -0.4559
      3 O           8.1324    1.0961    0.0000 O.3     1  UNL1       -0.4325
      4 O           3.2568    0.1550    0.0000 O.3     1  UNL1       -0.4580
      5 O           4.8612    2.0472    0.0000 O.3     1  UNL1       -0.3806
      6 O           6.3423   -2.3678    0.0000 O.3     1  UNL1       -0.3878
      7 O           7.6377   -1.4266    0.0000 O.3     1  UNL1       -0.3798
      8 O           3.7551    0.8622    0.0000 O.2     1  UNL1       -0.2474
      9 O           9.3893   -0.1540    0.0000 O.2     1  UNL1       -0.2478
     10 O           2.0000    1.4051    0.0000 O.2     1  UNL1       -0.2504
     11 C           5.8475    0.1550    0.0000 C.3     1  UNL1        0.0706
     12 C           6.8371    0.1550    0.0000 C.3     1  UNL1        0.0875
     13 C           5.5418    1.0961    0.0000 C.3     1  UNL1        0.2117
     14 C           5.5418   -0.7861    0.0000 C.3     1  UNL1        0.1389
     15 C           7.1429   -0.7861    0.0000 C.3     1  UNL1        0.0084
     16 C           4.5522    1.0961    0.0000 C.3     1  UNL1        0.1551
     17 C           5.0470   -0.4266    0.0000 C.3     1  UNL1        0.0005
     18 C           7.1429    1.0961    0.0000 C.3     1  UNL1        0.2156
     19 C           6.3423   -1.3678    0.0000 C.3     1  UNL1        0.0968
     20 C           4.2464    0.1550    0.0000 C.3     1  UNL1        0.1364
     21 C           7.6377   -0.4266    0.0000 C.3     1  UNL1        0.1640
     22 C           4.6512    0.4182    0.0000 C.2     1  UNL1        0.3437
     23 C           8.0939   -1.0952    0.0000 C.3     1  UNL1       -0.0316
     24 C           3.7516    1.6778    0.0000 C.3     1  UNL1        0.0891
     25 C           8.4382    0.1550    0.0000 C.2     1  UNL1        0.3390
     26 C           2.9511    1.0961    0.0000 C.2     1  UNL1        0.3133
     27 C           9.0450   -1.4042    0.0000 C.3     1  UNL1       -0.0597
     28 C           7.7849   -2.0462    0.0000 C.3     1  UNL1       -0.0597
     29 C           8.9420   -0.5652    0.0000 C.3     1  UNL1       -0.0597
     30 C           3.7516    2.6778    0.0000 C.3     1  UNL1       -0.0494
     31 H           5.2814   -1.5953    0.0000 H       1  UNL1        0.0767
     32 H           7.2758   -1.6257    0.0000 H       1  UNL1        0.0341
     33 H           4.6321   -0.8874    0.0000 H       1  UNL1        0.0310
     34 H           5.4618   -0.8874    0.0000 H       1  UNL1        0.0310
     35 H           7.4056    1.9045    0.0000 H       1  UNL1        0.1064
     36 H           5.7899   -1.6492    0.0000 H       1  UNL1        0.0633
     37 H           3.9837   -0.6534    0.0000 H       1  UNL1        0.0764
     38 H           8.1901   -0.7081    0.0000 H       1  UNL1        0.0718
     39 H           4.3040    1.9592    0.0000 H       1  UNL1        0.0441
     40 H           5.4677    2.1761    0.0000 H       1  UNL1        0.2105
     41 H           5.8054   -2.6778    0.0000 H       1  UNL1        0.2099
     42 H           7.1952   -1.8546    0.0000 H       1  UNL1        0.0235
     43 H           7.5933   -2.6359    0.0000 H       1  UNL1        0.0235
     44 H           8.3746   -2.2378    0.0000 H       1  UNL1        0.0235
     45 H           8.8534   -1.9938    0.0000 H       1  UNL1        0.0235
     46 H           9.6346   -1.5958    0.0000 H       1  UNL1        0.0235
     47 H           9.2366   -0.8145    0.0000 H       1  UNL1        0.0235
     48 H           9.2705   -1.0910    0.0000 H       1  UNL1        0.0235
     49 H           9.4678   -0.2367    0.0000 H       1  UNL1        0.0235
     50 H           8.6134   -0.0394    0.0000 H       1  UNL1        0.0235
     51 H           4.3716    2.6778    0.0000 H       1  UNL1        0.0238
     52 H           3.7516    3.2978    0.0000 H       1  UNL1        0.0238
     53 H           3.1316    2.6778    0.0000 H       1  UNL1        0.0238
     54 H           7.1007   -1.7366    0.0000 H       1  UNL1        0.2105
@<TRIPOS>BOND
     1    13     1    1
     2     1    18    1
     3     2    14    1
     4     2    22    1
     5     3    18    1
     6     3    25    1
     7     4    20    1
     8     4    26    1
     9    16     5    1
    10     5    40    1
    11    19     6    1
    12     6    41    1
    13    21     7    1
    14     7    54    1
    15     8    22    2
    16     9    25    2
    17    10    26    2
    18    11    12    1
    19    11    13    1
    20    11    14    1
    21    11    17    1
    22    12    15    1
    23    12    18    1
    24    12    21    1
    25    13    16    1
    26    13    22    1
    27    14    19    1
    28    14    31    1
    29    15    19    1
    30    15    23    1
    31    15    32    1
    32    16    20    1
    33    16    24    1
    34    17    20    1
    35    17    33    1
    36    17    34    1
    37    18    35    1
    38    19    36    1
    39    20    37    1
    40    21    25    1
    41    21    38    1
    42    23    27    1
    43    23    28    1
    44    23    29    1
    45    24    26    1
    46    24    30    1
    47    24    39    1
    48    27    45    1
    49    27    46    1
    50    27    47    1
    51    28    42    1
    52    28    43    1
    53    28    44    1
    54    29    48    1
    55    29    49    1
    56    29    50    1
    57    30    51    1
    58    30    52    1
    59    30    53    1
