@<TRIPOS>MOLECULE
IMPHY013703
 49 51 0 0 0
SMALL
GASTEIGER

@<TRIPOS>ATOM
      1 O           3.7230   -2.5082    0.0000 O.3     1  UNL1       -0.4558
      2 O           4.5447    0.6571    0.0000 O.3     1  UNL1       -0.4576
      3 O           7.3840   -0.4022    0.0000 O.3     1  UNL1       -0.3840
      4 O           6.5929   -3.5959    0.0000 O.2     1  UNL1       -0.4673
      5 O           2.0000   -2.0761    0.0000 O.2     1  UNL1       -0.2505
      6 O           6.1053    1.4086    0.0000 O.2     1  UNL1       -0.2453
      7 C           4.3551   -1.0257    0.0000 C.3     1  UNL1        0.0503
      8 C           4.5777   -2.0006    0.0000 C.3     1  UNL1        0.1384
      9 C           4.9786   -0.2438    0.0000 C.3     1  UNL1        0.1136
     10 C           3.3648   -0.9391    0.0000 C.3     1  UNL1        0.0635
     11 C           5.9786   -0.2438    0.0000 C.3     1  UNL1        0.0177
     12 C           6.6021   -1.0257    0.0000 C.3     1  UNL1        0.0948
     13 C           5.4786   -2.4345    0.0000 C.ar    1  UNL1        0.0396
     14 C           6.3796   -2.0006    0.0000 C.ar    1  UNL1        0.0284
     15 C           2.9749   -1.8536    0.0000 C.2     1  UNL1        0.3110
     16 C           2.8504   -0.0816    0.0000 C.3     1  UNL1       -0.0518
     17 C           5.6146   -3.4192    0.0000 C.ar    1  UNL1        0.1088
     18 C           7.5770   -1.2482    0.0000 C.3     1  UNL1       -0.0316
     19 C           7.0647   -2.7209    0.0000 C.ar    1  UNL1        0.0983
     20 C           4.8930   -4.1115    0.0000 C.3     1  UNL1       -0.0060
     21 C           5.1081    1.4834    0.0000 C.2     1  UNL1        0.3348
     22 C           4.6742    2.3843    0.0000 C.2     1  UNL1        0.0293
     23 C           3.6770    2.4591    0.0000 C.3     1  UNL1       -0.0333
     24 C           5.2375    3.2106    0.0000 C.2     1  UNL1       -0.0774
     25 C           4.8036    4.1115    0.0000 C.3     1  UNL1       -0.0461
     26 H           4.9596   -1.1636    0.0000 H       1  UNL1        0.0384
     27 H           4.6047   -2.6200    0.0000 H       1  UNL1        0.0791
     28 H           4.3625   -0.1744    0.0000 H       1  UNL1        0.0739
     29 H           3.6936   -0.4135    0.0000 H       1  UNL1        0.0416
     30 H           6.5372    0.0252    0.0000 H       1  UNL1        0.0332
     31 H           5.8407    0.3606    0.0000 H       1  UNL1        0.0332
     32 H           3.3821    0.2373    0.0000 H       1  UNL1        0.0238
     33 H           2.5315    0.4501    0.0000 H       1  UNL1        0.0238
     34 H           2.3188   -0.4005    0.0000 H       1  UNL1        0.0238
     35 H           7.4391   -1.8527    0.0000 H       1  UNL1        0.0261
     36 H           8.1815   -1.3862    0.0000 H       1  UNL1        0.0261
     37 H           7.7150   -0.6437    0.0000 H       1  UNL1        0.0261
     38 H           7.6792   -2.6387    0.0000 H       1  UNL1        0.1033
     39 H           7.2916    0.2109    0.0000 H       1  UNL1        0.2106
     40 H           4.4638   -3.6642    0.0000 H       1  UNL1        0.0308
     41 H           4.4456   -4.5408    0.0000 H       1  UNL1        0.0308
     42 H           5.3223   -4.5589    0.0000 H       1  UNL1        0.0308
     43 H           3.7233    3.0773    0.0000 H       1  UNL1        0.0280
     44 H           3.0587    2.5054    0.0000 H       1  UNL1        0.0280
     45 H           3.6306    1.8408    0.0000 H       1  UNL1        0.0280
     46 H           5.8558    3.1642    0.0000 H       1  UNL1        0.0574
     47 H           5.3622    4.3805    0.0000 H       1  UNL1        0.0272
     48 H           4.5346    4.6701    0.0000 H       1  UNL1        0.0272
     49 H           4.2450    3.8425    0.0000 H       1  UNL1        0.0272
@<TRIPOS>BOND
     1     1     8    1
     2     1    15    1
     3     2     9    1
     4     2    21    1
     5     3    12    1
     6     3    39    1
     7     4    17   ar
     8     4    19   ar
     9     5    15    2
    10     6    21    2
    11     7     8    1
    12     7     9    1
    13     7    10    1
    14     7    26    1
    15     8    13    1
    16     8    27    1
    17     9    11    1
    18     9    28    1
    19    10    15    1
    20    10    16    1
    21    10    29    1
    22    11    12    1
    23    11    30    1
    24    11    31    1
    25    12    14    1
    26    12    18    1
    27    13    14   ar
    28    13    17   ar
    29    14    19   ar
    30    16    32    1
    31    16    33    1
    32    16    34    1
    33    17    20    1
    34    18    35    1
    35    18    36    1
    36    18    37    1
    37    19    38    1
    38    20    40    1
    39    20    41    1
    40    20    42    1
    41    21    22    1
    42    22    23    1
    43    22    24    2
    44    23    43    1
    45    23    44    1
    46    23    45    1
    47    24    25    1
    48    24    46    1
    49    25    47    1
    50    25    48    1
    51    25    49    1
