@<TRIPOS>MOLECULE
IMPHY008506
 155 164 0 0 0
SMALL
GASTEIGER

@<TRIPOS>ATOM
      1 O           9.1562    5.5403    0.0000 O.3     1  UNL1       -0.3448
      2 O           7.3837    6.4351    0.0000 O.3     1  UNL1       -0.3480
      3 O           7.7331   -2.7038    0.0000 O.3     1  UNL1       -0.3451
      4 O           6.0010   -2.7038    0.0000 O.3     1  UNL1       -0.3405
      5 O           7.7331   -4.7038    0.0000 O.3     1  UNL1       -0.3377
      6 O           6.0010   -5.7038    0.0000 O.3     1  UNL1       -0.3400
      7 O           4.2690   -4.7038    0.0000 O.3     1  UNL1       -0.3865
      8 O           8.5991   -3.2038    0.0000 O.3     1  UNL1       -0.3405
      9 O           4.2690   -1.7038    0.0000 O.3     1  UNL1       -0.3924
     10 O           4.2690   -5.7038    0.0000 O.3     1  UNL1       -0.3431
     11 O           9.4651   -5.7038    0.0000 O.3     1  UNL1       -0.3841
     12 O          11.1972   -4.7038    0.0000 O.3     1  UNL1       -0.3864
     13 O           6.0010   -7.7038    0.0000 O.3     1  UNL1       -0.3841
     14 O          11.1972   -2.7038    0.0000 O.3     1  UNL1       -0.3401
     15 O           4.2690   -8.7038    0.0000 O.3     1  UNL1       -0.3864
     16 O           2.5369   -7.7038    0.0000 O.3     1  UNL1       -0.3866
     17 O          10.3312   -1.2038    0.0000 O.3     1  UNL1       -0.3924
     18 O          12.0632   -4.2038    0.0000 O.3     1  UNL1       -0.3405
     19 O          12.9292   -1.7038    0.0000 O.3     1  UNL1       -0.3841
     20 O          14.6613   -2.7038    0.0000 O.3     1  UNL1       -0.3864
     21 O          14.6613   -4.7038    0.0000 O.3     1  UNL1       -0.3865
     22 O          13.7953   -6.2038    0.0000 O.3     1  UNL1       -0.3924
     23 C           7.7624    3.4931    0.0000 C.3     1  UNL1       -0.0233
     24 C           8.6303    2.9965    0.0000 C.3     1  UNL1       -0.0295
     25 C           7.9678    4.4657    0.0000 C.3     1  UNL1       -0.0015
     26 C           8.6342    1.9965    0.0000 C.3     1  UNL1       -0.0306
     27 C           8.9561    4.5726    0.0000 C.3     1  UNL1        0.0660
     28 C           7.7701    1.4931    0.0000 C.3     1  UNL1       -0.0285
     29 C           9.3647    3.6664    0.0000 C.3     1  UNL1       -0.0226
     30 C           6.8983    2.9898    0.0000 C.3     1  UNL1       -0.0467
     31 C           7.5655    5.3683    0.0000 C.3     1  UNL1        0.0160
     32 C           6.9021    1.9898    0.0000 C.3     1  UNL1       -0.0486
     33 C           7.7580    0.4516    0.0000 C.3     1  UNL1       -0.0078
     34 C           8.2985    6.0311    0.0000 C.3     1  UNL1        0.1732
     35 C           6.8944    3.9898    0.0000 C.3     1  UNL1       -0.0590
     36 C           9.5461    1.4931    0.0000 C.3     1  UNL1       -0.0311
     37 C           8.6581   -0.0727    0.0000 C.2     1  UNL1       -0.0648
     38 C           6.8081   -0.0727    0.0000 C.3     1  UNL1       -0.0413
     39 C           6.5871    5.5750    0.0000 C.3     1  UNL1       -0.0572
     40 C           9.1057    6.6213    0.0000 C.3     1  UNL1        0.0020
     41 C           9.5581    0.4516    0.0000 C.2     1  UNL1       -0.0839
     42 C           6.8939    0.9549    0.0000 C.3     1  UNL1       -0.0556
     43 C           8.6706   -1.1576    0.0000 C.3     1  UNL1       -0.0047
     44 C           6.7956   -1.1576    0.0000 C.3     1  UNL1       -0.0254
     45 C           7.7331   -1.7038    0.0000 C.3     1  UNL1        0.0655
     46 C           8.9982    7.6155    0.0000 C.3     1  UNL1       -0.0435
     47 C           8.0835    8.0195    0.0000 C.3     1  UNL1       -0.0201
     48 C           7.2762    7.4293    0.0000 C.3     1  UNL1        0.0535
     49 C           7.9760    9.0138    0.0000 C.3     1  UNL1       -0.0603
     50 C           6.8671   -3.2038    0.0000 C.3     1  UNL1        0.1886
     51 C           6.8671   -4.2038    0.0000 C.3     1  UNL1        0.1410
     52 C           6.0010   -4.7038    0.0000 C.3     1  UNL1        0.1209
     53 C           5.1350   -3.2038    0.0000 C.3     1  UNL1        0.1130
     54 C           5.1350   -4.2038    0.0000 C.3     1  UNL1        0.1123
     55 C           4.2690   -2.7038    0.0000 C.3     1  UNL1        0.0730
     56 C           8.5991   -4.2038    0.0000 C.3     1  UNL1        0.1885
     57 C           5.1350   -6.2038    0.0000 C.3     1  UNL1        0.1883
     58 C           9.4651   -4.7038    0.0000 C.3     1  UNL1        0.1341
     59 C          10.3312   -4.2038    0.0000 C.3     1  UNL1        0.1144
     60 C           5.1350   -7.2038    0.0000 C.3     1  UNL1        0.1341
     61 C           9.4651   -2.7038    0.0000 C.3     1  UNL1        0.1134
     62 C          10.3312   -3.2038    0.0000 C.3     1  UNL1        0.1184
     63 C           4.2690   -7.7038    0.0000 C.3     1  UNL1        0.1140
     64 C           3.4030   -6.2038    0.0000 C.3     1  UNL1        0.0873
     65 C           3.4030   -7.2038    0.0000 C.3     1  UNL1        0.1095
     66 C           9.4651   -1.7038    0.0000 C.3     1  UNL1        0.0730
     67 C           2.5369   -5.7038    0.0000 C.3     1  UNL1       -0.0361
     68 C          12.0632   -3.2038    0.0000 C.3     1  UNL1        0.1884
     69 C          12.9292   -2.7038    0.0000 C.3     1  UNL1        0.1341
     70 C          13.7953   -3.2038    0.0000 C.3     1  UNL1        0.1141
     71 C          12.9292   -4.7038    0.0000 C.3     1  UNL1        0.1130
     72 C          13.7953   -4.2038    0.0000 C.3     1  UNL1        0.1119
     73 C          12.9292   -5.7038    0.0000 C.3     1  UNL1        0.0730
     74 H           9.1980    2.7472    0.0000 H       1  UNL1        0.0310
     75 H           7.3512    4.4004    0.0000 H       1  UNL1        0.0335
     76 H           9.1675    2.3127    0.0000 H       1  UNL1        0.0310
     77 H           9.5724    4.6406    0.0000 H       1  UNL1        0.0600
     78 H           8.3058    1.1811    0.0000 H       1  UNL1        0.0312
     79 H           9.7321    3.1670    0.0000 H       1  UNL1        0.0293
     80 H           9.9000    3.9792    0.0000 H       1  UNL1        0.0293
     81 H           6.6840    3.5716    0.0000 H       1  UNL1        0.0271
     82 H           6.2881    2.8798    0.0000 H       1  UNL1        0.0271
     83 H           7.4040    5.9669    0.0000 H       1  UNL1        0.0354
     84 H           6.2911    2.0951    0.0000 H       1  UNL1        0.0268
     85 H           6.6923    1.4064    0.0000 H       1  UNL1        0.0268
     86 H           7.2023    4.5279    0.0000 H       1  UNL1        0.0235
     87 H           6.3563    4.2977    0.0000 H       1  UNL1        0.0235
     88 H           6.5865    3.4517    0.0000 H       1  UNL1        0.0235
     89 H          10.1581    1.3941    0.0000 H       1  UNL1        0.0310
     90 H           9.7484    2.0792    0.0000 H       1  UNL1        0.0310
     91 H           6.6058    0.5134    0.0000 H       1  UNL1        0.0274
     92 H           6.1961   -0.1717    0.0000 H       1  UNL1        0.0274
     93 H           6.7152    6.1816    0.0000 H       1  UNL1        0.0234
     94 H           5.9805    5.7032    0.0000 H       1  UNL1        0.0234
     95 H           6.4590    4.9684    0.0000 H       1  UNL1        0.0234
     96 H           9.3792    6.0649    0.0000 H       1  UNL1        0.0317
     97 H           9.7012    6.7940    0.0000 H       1  UNL1        0.0317
     98 H          10.0975    0.1457    0.0000 H       1  UNL1        0.0572
     99 H           7.2060    1.4906    0.0000 H       1  UNL1        0.0238
    100 H           6.3582    1.2670    0.0000 H       1  UNL1        0.0238
    101 H           6.5818    0.4192    0.0000 H       1  UNL1        0.0238
    102 H           8.8864   -1.7389    0.0000 H       1  UNL1        0.0335
    103 H           9.2802   -1.0445    0.0000 H       1  UNL1        0.0335
    104 H           6.1860   -1.0445    0.0000 H       1  UNL1        0.0290
    105 H           6.5798   -1.7389    0.0000 H       1  UNL1        0.0290
    106 H           8.2706   -2.0127    0.0000 H       1  UNL1        0.0600
    107 H           9.6168    7.5741    0.0000 H       1  UNL1        0.0270
    108 H           9.1464    8.2176    0.0000 H       1  UNL1        0.0270
    109 H           8.5840    8.3855    0.0000 H       1  UNL1        0.0320
    110 H           7.0028    7.9858    0.0000 H       1  UNL1        0.0563
    111 H           6.6808    7.2567    0.0000 H       1  UNL1        0.0563
    112 H           8.5924    9.0804    0.0000 H       1  UNL1        0.0233
    113 H           7.9093    9.6302    0.0000 H       1  UNL1        0.0233
    114 H           7.3596    8.9471    0.0000 H       1  UNL1        0.0233
    115 H           7.4040   -3.5138    0.0000 H       1  UNL1        0.0938
    116 H           6.8671   -4.8238    0.0000 H       1  UNL1        0.0675
    117 H           5.4641   -5.0138    0.0000 H       1  UNL1        0.0651
    118 H           5.1350   -2.5838    0.0000 H       1  UNL1        0.0647
    119 H           4.5981   -3.8938    0.0000 H       1  UNL1        0.0647
    120 H           3.6584   -2.5961    0.0000 H       1  UNL1        0.0584
    121 H           4.0569   -3.2864    0.0000 H       1  UNL1        0.0584
    122 H           8.5991   -4.8238    0.0000 H       1  UNL1        0.0938
    123 H           3.7320   -4.3938    0.0000 H       1  UNL1        0.2100
    124 H           5.1350   -5.5838    0.0000 H       1  UNL1        0.0938
    125 H          10.0021   -5.0138    0.0000 H       1  UNL1        0.0671
    126 H          10.8681   -3.8938    0.0000 H       1  UNL1        0.0648
    127 H           3.7320   -1.3938    0.0000 H       1  UNL1        0.2095
    128 H           5.1350   -7.8238    0.0000 H       1  UNL1        0.0671
    129 H           8.9282   -2.3938    0.0000 H       1  UNL1        0.0647
    130 H          10.3312   -2.5838    0.0000 H       1  UNL1        0.0651
    131 H           3.7320   -8.0138    0.0000 H       1  UNL1        0.0648
    132 H           3.4030   -5.5838    0.0000 H       1  UNL1        0.0621
    133 H          10.0021   -6.0138    0.0000 H       1  UNL1        0.2101
    134 H           3.4030   -7.8238    0.0000 H       1  UNL1        0.0646
    135 H           9.2531   -1.1211    0.0000 H       1  UNL1        0.0584
    136 H           8.8546   -1.8114    0.0000 H       1  UNL1        0.0584
    137 H          11.1972   -5.3238    0.0000 H       1  UNL1        0.2100
    138 H           6.0010   -8.3238    0.0000 H       1  UNL1        0.2101
    139 H           2.8469   -5.1668    0.0000 H       1  UNL1        0.0255
    140 H           2.0000   -5.3938    0.0000 H       1  UNL1        0.0255
    141 H           2.2269   -6.2407    0.0000 H       1  UNL1        0.0255
    142 H           3.7320   -9.0138    0.0000 H       1  UNL1        0.2100
    143 H          11.5263   -3.5138    0.0000 H       1  UNL1        0.0938
    144 H           2.0000   -7.3938    0.0000 H       1  UNL1        0.2100
    145 H          10.8681   -1.5138    0.0000 H       1  UNL1        0.2095
    146 H          12.3923   -2.3938    0.0000 H       1  UNL1        0.0671
    147 H          13.7953   -2.5838    0.0000 H       1  UNL1        0.0648
    148 H          12.3923   -5.0138    0.0000 H       1  UNL1        0.0647
    149 H          14.3322   -3.8938    0.0000 H       1  UNL1        0.0647
    150 H          13.4662   -1.3938    0.0000 H       1  UNL1        0.2101
    151 H          12.3187   -5.5961    0.0000 H       1  UNL1        0.0584
    152 H          12.7172   -6.2864    0.0000 H       1  UNL1        0.0584
    153 H          15.1982   -3.0138    0.0000 H       1  UNL1        0.2100
    154 H          15.1982   -4.3938    0.0000 H       1  UNL1        0.2100
    155 H          13.7953   -6.8238    0.0000 H       1  UNL1        0.2095
@<TRIPOS>BOND
     1     1    27    1
     2     1    34    1
     3     2    34    1
     4     2    48    1
     5     3    45    1
     6     3    50    1
     7     4    50    1
     8     4    53    1
     9     5    51    1
    10     5    56    1
    11     6    52    1
    12     6    57    1
    13     7    54    1
    14     7   123    1
    15     8    56    1
    16     8    61    1
    17     9    55    1
    18     9   127    1
    19    10    57    1
    20    10    64    1
    21    11    58    1
    22    11   133    1
    23    12    59    1
    24    12   137    1
    25    13    60    1
    26    13   138    1
    27    14    62    1
    28    14    68    1
    29    15    63    1
    30    15   142    1
    31    16    65    1
    32    16   144    1
    33    17    66    1
    34    17   145    1
    35    18    68    1
    36    18    71    1
    37    19    69    1
    38    19   150    1
    39    20    70    1
    40    20   153    1
    41    21    72    1
    42    21   154    1
    43    22    73    1
    44    22   155    1
    45    23    24    1
    46    23    25    1
    47    23    30    1
    48    23    35    1
    49    24    26    1
    50    24    29    1
    51    24    74    1
    52    25    27    1
    53    25    31    1
    54    25    75    1
    55    26    28    1
    56    26    36    1
    57    26    76    1
    58    27    29    1
    59    27    77    1
    60    28    32    1
    61    28    33    1
    62    28    78    1
    63    29    79    1
    64    29    80    1
    65    30    32    1
    66    30    81    1
    67    30    82    1
    68    31    34    1
    69    31    39    1
    70    31    83    1
    71    32    84    1
    72    32    85    1
    73    33    37    1
    74    33    38    1
    75    33    42    1
    76    34    40    1
    77    35    86    1
    78    35    87    1
    79    35    88    1
    80    36    41    1
    81    36    89    1
    82    36    90    1
    83    37    41    2
    84    37    43    1
    85    38    44    1
    86    38    91    1
    87    38    92    1
    88    39    93    1
    89    39    94    1
    90    39    95    1
    91    40    46    1
    92    40    96    1
    93    40    97    1
    94    41    98    1
    95    42    99    1
    96    42   100    1
    97    42   101    1
    98    43    45    1
    99    43   102    1
   100    43   103    1
   101    44    45    1
   102    44   104    1
   103    44   105    1
   104    45   106    1
   105    46    47    1
   106    46   107    1
   107    46   108    1
   108    47    48    1
   109    47    49    1
   110    47   109    1
   111    48   110    1
   112    48   111    1
   113    49   112    1
   114    49   113    1
   115    49   114    1
   116    50    51    1
   117    50   115    1
   118    51    52    1
   119    51   116    1
   120    52    54    1
   121    52   117    1
   122    53    54    1
   123    53    55    1
   124    53   118    1
   125    54   119    1
   126    55   120    1
   127    55   121    1
   128    56    58    1
   129    56   122    1
   130    57    60    1
   131    57   124    1
   132    58    59    1
   133    58   125    1
   134    59    62    1
   135    59   126    1
   136    60    63    1
   137    60   128    1
   138    61    62    1
   139    61    66    1
   140    61   129    1
   141    62   130    1
   142    63    65    1
   143    63   131    1
   144    64    65    1
   145    64    67    1
   146    64   132    1
   147    65   134    1
   148    66   135    1
   149    66   136    1
   150    67   139    1
   151    67   140    1
   152    67   141    1
   153    68    69    1
   154    68   143    1
   155    69    70    1
   156    69   146    1
   157    70    72    1
   158    70   147    1
   159    71    72    1
   160    71    73    1
   161    71   148    1
   162    72   149    1
   163    73   151    1
   164    73   152    1
