@<TRIPOS>MOLECULE
IMPHY008549
 80 81 0 0 0
SMALL
GASTEIGER

@<TRIPOS>ATOM
      1 O           2.8660    0.5779    0.0000 O.3     1  UNL1       -0.4862
      2 O           3.7226    0.0613    0.0000 O.2     1  UNL1       -0.2736
      3 O           6.9641    0.2119    0.0000 O.2     1  UNL1       -0.2741
      4 O           3.7118   -2.8852    0.0000 O.2     1  UNL1       -0.2734
      5 N           5.4641    1.0780    0.0000 N.am    1  UNL1       -0.2997
      6 N           5.4641   -0.9221    0.0000 N.am    1  UNL1       -0.3023
      7 N           7.9641    1.9440    0.0000 N.3     1  UNL1       -0.2976
      8 N           4.5981   -3.4220    0.0000 N.am    1  UNL1       -0.2904
      9 C           3.7320    1.0780    0.0000 C.3     1  UNL1        0.1292
     10 C           4.5981    0.5779    0.0000 C.3     1  UNL1        0.1368
     11 C           3.7320    2.0780    0.0000 C.3     1  UNL1       -0.0073
     12 C           6.9641    1.9440    0.0000 C.3     1  UNL1        0.0870
     13 C           6.4641    2.8100    0.0000 C.3     1  UNL1       -0.0265
     14 C           4.5981   -0.4221    0.0000 C.2     1  UNL1        0.2376
     15 C           6.9641    3.6760    0.0000 C.3     1  UNL1       -0.0449
     16 C           6.4641    1.0780    0.0000 C.2     1  UNL1        0.2309
     17 C           5.4641   -1.9220    0.0000 C.3     1  UNL1        0.0999
     18 C           6.3301   -2.4220    0.0000 C.3     1  UNL1       -0.0236
     19 C           2.8660    2.5779    0.0000 C.3     1  UNL1       -0.0592
     20 C           4.5981    2.5780    0.0000 C.3     1  UNL1       -0.0592
     21 C           7.1962   -1.9220    0.0000 C.3     1  UNL1       -0.0446
     22 C           6.4641    4.5420    0.0000 C.3     1  UNL1       -0.0626
     23 C           7.9641    3.6760    0.0000 C.3     1  UNL1       -0.0626
     24 C           4.5981   -2.4220    0.0000 C.2     1  UNL1        0.2371
     25 C           8.4641    2.8100    0.0000 C.3     1  UNL1       -0.0123
     26 C           8.4641    1.0780    0.0000 C.3     1  UNL1       -0.0123
     27 C           2.8660   -0.4221    0.0000 C.ar    1  UNL1        0.1211
     28 C           8.0622   -2.4220    0.0000 C.3     1  UNL1       -0.0626
     29 C           7.1962   -0.9220    0.0000 C.3     1  UNL1       -0.0626
     30 C           3.7320   -0.9221    0.0000 C.ar    1  UNL1       -0.0194
     31 C           2.0000   -0.9221    0.0000 C.ar    1  UNL1       -0.0194
     32 C           2.8660   -2.4220    0.0000 C.ar    1  UNL1       -0.0236
     33 C           3.7320   -1.9220    0.0000 C.ar    1  UNL1       -0.0511
     34 C           2.0000   -1.9220    0.0000 C.ar    1  UNL1       -0.0511
     35 C           3.7320   -3.9220    0.0000 C.2     1  UNL1       -0.0031
     36 C           2.8660   -3.4220    0.0000 C.2     1  UNL1       -0.0407
     37 H           3.1951    1.3880    0.0000 H       1  UNL1        0.0759
     38 H           5.1350    0.2679    0.0000 H       1  UNL1        0.0632
     39 H           4.2690    1.7680    0.0000 H       1  UNL1        0.0332
     40 H           7.2741    1.4070    0.0000 H       1  UNL1        0.0558
     41 H           5.9892    3.2085    0.0000 H       1  UNL1        0.0288
     42 H           5.9892    2.4115    0.0000 H       1  UNL1        0.0288
     43 H           5.4641    1.6980    0.0000 H       1  UNL1        0.1496
     44 H           7.2741    3.1391    0.0000 H       1  UNL1        0.0296
     45 H           6.0010   -1.6120    0.0000 H       1  UNL1        0.0595
     46 H           5.9316   -2.8970    0.0000 H       1  UNL1        0.0290
     47 H           6.7287   -2.8970    0.0000 H       1  UNL1        0.0290
     48 H           6.0010   -0.6121    0.0000 H       1  UNL1        0.1495
     49 H           4.9081    2.0410    0.0000 H       1  UNL1        0.0233
     50 H           3.1760    3.1149    0.0000 H       1  UNL1        0.0233
     51 H           2.3291    2.8879    0.0000 H       1  UNL1        0.0233
     52 H           2.5560    2.0410    0.0000 H       1  UNL1        0.0233
     53 H           5.1350    2.8880    0.0000 H       1  UNL1        0.0233
     54 H           4.2881    3.1149    0.0000 H       1  UNL1        0.0233
     55 H           6.6592   -1.6120    0.0000 H       1  UNL1        0.0296
     56 H           7.0010    4.8520    0.0000 H       1  UNL1        0.0232
     57 H           6.1541    5.0790    0.0000 H       1  UNL1        0.0232
     58 H           5.9272    4.2320    0.0000 H       1  UNL1        0.0232
     59 H           7.9641    3.0560    0.0000 H       1  UNL1        0.0232
     60 H           8.5841    3.6760    0.0000 H       1  UNL1        0.0232
     61 H           7.9641    4.2960    0.0000 H       1  UNL1        0.0232
     62 H           9.0010    2.5000    0.0000 H       1  UNL1        0.0391
     63 H           8.7741    3.3469    0.0000 H       1  UNL1        0.0391
     64 H           7.9272    3.1200    0.0000 H       1  UNL1        0.0391
     65 H           7.9272    0.7680    0.0000 H       1  UNL1        0.0391
     66 H           8.7741    0.5410    0.0000 H       1  UNL1        0.0391
     67 H           9.0010    1.3880    0.0000 H       1  UNL1        0.0391
     68 H           7.8162   -0.9220    0.0000 H       1  UNL1        0.0232
     69 H           7.1962   -0.3020    0.0000 H       1  UNL1        0.0232
     70 H           6.5762   -0.9220    0.0000 H       1  UNL1        0.0232
     71 H           7.7522   -2.9590    0.0000 H       1  UNL1        0.0232
     72 H           8.5991   -2.7320    0.0000 H       1  UNL1        0.0232
     73 H           8.3722   -1.8851    0.0000 H       1  UNL1        0.0232
     74 H           5.1350   -3.7320    0.0000 H       1  UNL1        0.1543
     75 H           4.2690   -0.6121    0.0000 H       1  UNL1        0.0654
     76 H           1.4631   -0.6121    0.0000 H       1  UNL1        0.0654
     77 H           4.2690   -2.2320    0.0000 H       1  UNL1        0.0625
     78 H           1.4631   -2.2320    0.0000 H       1  UNL1        0.0625
     79 H           3.7320   -4.5420    0.0000 H       1  UNL1        0.0782
     80 H           2.3291   -3.7320    0.0000 H       1  UNL1        0.0636
@<TRIPOS>BOND
     1     1     9    1
     2     1    27    1
     3     2    14    2
     4     3    16    2
     5     4    24    2
     6    10     5    1
     7     5    16   am
     8     5    43    1
     9     6    14   am
    10     6    17    1
    11     6    48    1
    12    12     7    1
    13     7    25    1
    14     7    26    1
    15     8    24   am
    16     8    35    1
    17     8    74    1
    18     9    10    1
    19     9    11    1
    20     9    37    1
    21    10    14    1
    22    10    38    1
    23    11    19    1
    24    11    20    1
    25    11    39    1
    26    12    13    1
    27    12    16    1
    28    12    40    1
    29    13    15    1
    30    13    41    1
    31    13    42    1
    32    15    22    1
    33    15    23    1
    34    15    44    1
    35    17    18    1
    36    17    24    1
    37    17    45    1
    38    18    21    1
    39    18    46    1
    40    18    47    1
    41    19    50    1
    42    19    51    1
    43    19    52    1
    44    20    49    1
    45    20    53    1
    46    20    54    1
    47    21    28    1
    48    21    29    1
    49    21    55    1
    50    22    56    1
    51    22    57    1
    52    22    58    1
    53    23    59    1
    54    23    60    1
    55    23    61    1
    56    25    62    1
    57    25    63    1
    58    25    64    1
    59    26    65    1
    60    26    66    1
    61    26    67    1
    62    27    30   ar
    63    27    31   ar
    64    28    71    1
    65    28    72    1
    66    28    73    1
    67    29    68    1
    68    29    69    1
    69    29    70    1
    70    30    33   ar
    71    30    75    1
    72    31    34   ar
    73    31    76    1
    74    32    33   ar
    75    32    34   ar
    76    32    36    1
    77    33    77    1
    78    34    78    1
    79    35    36    2
    80    35    79    1
    81    36    80    1
