@<TRIPOS>MOLECULE
IMPHY000627
 51 51 0 0 0
SMALL
GASTEIGER

@<TRIPOS>ATOM
      1 O           7.7331    1.0000    0.0000 O.2     1  UNL1       -0.2758
      2 O           4.2690    5.0000    0.0000 O.3     1  UNL1       -0.4914
      3 O           2.5369    4.0000    0.0000 O.3     1  UNL1       -0.5033
      4 N           6.0010    1.0000    0.0000 N.am    1  UNL1       -0.3112
      5 C           8.5991   -3.5000    0.0000 C.3     1  UNL1       -0.0528
      6 C           9.4651   -4.0000    0.0000 C.3     1  UNL1       -0.0507
      7 C           8.5991   -2.5000    0.0000 C.3     1  UNL1       -0.0530
      8 C           9.4651   -5.0000    0.0000 C.3     1  UNL1       -0.0467
      9 C           7.7331   -2.0000    0.0000 C.3     1  UNL1       -0.0526
     10 C           7.7331   -1.0000    0.0000 C.3     1  UNL1       -0.0448
     11 C          10.3312   -5.5000    0.0000 C.3     1  UNL1       -0.0627
     12 C           8.5991   -5.5000    0.0000 C.3     1  UNL1       -0.0627
     13 C           6.8671   -0.5000    0.0000 C.3     1  UNL1        0.0240
     14 C           6.8671    0.5000    0.0000 C.2     1  UNL1        0.2133
     15 C           6.0010    2.0000    0.0000 C.3     1  UNL1        0.0369
     16 C           5.1350    2.5000    0.0000 C.ar    1  UNL1       -0.0266
     17 C           5.1350    3.5000    0.0000 C.ar    1  UNL1       -0.0116
     18 C           4.2690    2.0000    0.0000 C.ar    1  UNL1       -0.0534
     19 C           4.2690    4.0000    0.0000 C.ar    1  UNL1        0.1616
     20 C           3.4030    2.5000    0.0000 C.ar    1  UNL1       -0.0162
     21 C           3.4030    3.5000    0.0000 C.ar    1  UNL1        0.1585
     22 C           5.1350    5.5000    0.0000 C.3     1  UNL1        0.0790
     23 H           7.9885   -3.3923    0.0000 H       1  UNL1        0.0265
     24 H           8.3871   -4.0826    0.0000 H       1  UNL1        0.0265
     25 H          10.0757   -4.1077    0.0000 H       1  UNL1        0.0268
     26 H           9.6772   -3.4174    0.0000 H       1  UNL1        0.0268
     27 H           9.2097   -2.6077    0.0000 H       1  UNL1        0.0265
     28 H           8.8112   -1.9174    0.0000 H       1  UNL1        0.0265
     29 H          10.0021   -4.6900    0.0000 H       1  UNL1        0.0295
     30 H           7.1225   -1.8923    0.0000 H       1  UNL1        0.0265
     31 H           7.5210   -2.5826    0.0000 H       1  UNL1        0.0265
     32 H           8.3437   -1.1077    0.0000 H       1  UNL1        0.0270
     33 H           7.9451   -0.4174    0.0000 H       1  UNL1        0.0270
     34 H           6.2565   -0.3923    0.0000 H       1  UNL1        0.0358
     35 H           6.6550   -1.0826    0.0000 H       1  UNL1        0.0358
     36 H          10.0212   -6.0369    0.0000 H       1  UNL1        0.0232
     37 H          10.8681   -5.8100    0.0000 H       1  UNL1        0.0232
     38 H          10.6412   -4.9631    0.0000 H       1  UNL1        0.0232
     39 H           8.2891   -4.9631    0.0000 H       1  UNL1        0.0232
     40 H           8.0622   -5.8100    0.0000 H       1  UNL1        0.0232
     41 H           8.9091   -6.0369    0.0000 H       1  UNL1        0.0232
     42 H           5.4641    0.6900    0.0000 H       1  UNL1        0.1490
     43 H           6.6116    1.8923    0.0000 H       1  UNL1        0.0512
     44 H           6.2131    2.5826    0.0000 H       1  UNL1        0.0512
     45 H           5.6720    3.8100    0.0000 H       1  UNL1        0.0658
     46 H           4.2690    1.3800    0.0000 H       1  UNL1        0.0622
     47 H           2.8660    2.1900    0.0000 H       1  UNL1        0.0655
     48 H           2.0000    3.6900    0.0000 H       1  UNL1        0.2923
     49 H           5.4450    4.9631    0.0000 H       1  UNL1        0.0660
     50 H           5.6720    5.8100    0.0000 H       1  UNL1        0.0660
     51 H           4.8250    6.0369    0.0000 H       1  UNL1        0.0660
@<TRIPOS>BOND
     1     1    14    2
     2     2    19    1
     3     2    22    1
     4     3    21    1
     5     3    48    1
     6     4    14   am
     7     4    15    1
     8     4    42    1
     9     5     6    1
    10     5     7    1
    11     5    23    1
    12     5    24    1
    13     6     8    1
    14     6    25    1
    15     6    26    1
    16     7     9    1
    17     7    27    1
    18     7    28    1
    19     8    11    1
    20     8    12    1
    21     8    29    1
    22     9    10    1
    23     9    30    1
    24     9    31    1
    25    10    13    1
    26    10    32    1
    27    10    33    1
    28    11    36    1
    29    11    37    1
    30    11    38    1
    31    12    39    1
    32    12    40    1
    33    12    41    1
    34    13    14    1
    35    13    34    1
    36    13    35    1
    37    15    16    1
    38    15    43    1
    39    15    44    1
    40    16    17   ar
    41    16    18   ar
    42    17    19   ar
    43    17    45    1
    44    18    20   ar
    45    18    46    1
    46    19    21   ar
    47    20    21   ar
    48    20    47    1
    49    22    49    1
    50    22    50    1
    51    22    51    1
