@<TRIPOS>MOLECULE
IMPHY015615
 39 39 0 0 0
SMALL
GASTEIGER

@<TRIPOS>ATOM
      1 C           3.7320    0.7500    0.0000 C.3     1  UNL1       -0.0465
      2 C           2.8660    0.2500    0.0000 C.3     1  UNL1       -0.0187
      3 C           3.7320    1.7500    0.0000 C.3     1  UNL1       -0.0523
      4 C           4.5981    2.2500    0.0000 C.3     1  UNL1       -0.0507
      5 C           4.5981    3.2500    0.0000 C.3     1  UNL1       -0.0467
      6 C           2.8660   -0.7500    0.0000 C.ar    1  UNL1       -0.0445
      7 C           2.0000    0.7500    0.0000 C.3     1  UNL1       -0.0584
      8 C           5.4641    3.7500    0.0000 C.3     1  UNL1       -0.0627
      9 C           3.7320    3.7500    0.0000 C.3     1  UNL1       -0.0627
     10 C           2.0000   -1.2500    0.0000 C.ar    1  UNL1       -0.0581
     11 C           3.7320   -1.2500    0.0000 C.ar    1  UNL1       -0.0581
     12 C           2.0000   -2.2500    0.0000 C.ar    1  UNL1       -0.0586
     13 C           3.7320   -2.2500    0.0000 C.ar    1  UNL1       -0.0586
     14 C           2.8660   -2.7500    0.0000 C.ar    1  UNL1       -0.0504
     15 C           2.8660   -3.7500    0.0000 C.3     1  UNL1       -0.0397
     16 H           3.9441    0.1674    0.0000 H       1  UNL1        0.0271
     17 H           4.3426    0.8577    0.0000 H       1  UNL1        0.0271
     18 H           2.8660    0.8700    0.0000 H       1  UNL1        0.0346
     19 H           3.5200    2.3326    0.0000 H       1  UNL1        0.0266
     20 H           3.1215    1.6423    0.0000 H       1  UNL1        0.0266
     21 H           4.8101    1.6674    0.0000 H       1  UNL1        0.0268
     22 H           5.2087    2.3577    0.0000 H       1  UNL1        0.0268
     23 H           4.5981    3.8700    0.0000 H       1  UNL1        0.0295
     24 H           2.3100    1.2869    0.0000 H       1  UNL1        0.0236
     25 H           1.4631    1.0600    0.0000 H       1  UNL1        0.0236
     26 H           1.6900    0.2131    0.0000 H       1  UNL1        0.0236
     27 H           5.7741    3.2131    0.0000 H       1  UNL1        0.0232
     28 H           6.0010    4.0600    0.0000 H       1  UNL1        0.0232
     29 H           5.1541    4.2869    0.0000 H       1  UNL1        0.0232
     30 H           4.0420    4.2869    0.0000 H       1  UNL1        0.0232
     31 H           3.1951    4.0600    0.0000 H       1  UNL1        0.0232
     32 H           3.4220    3.2131    0.0000 H       1  UNL1        0.0232
     33 H           1.4631   -0.9400    0.0000 H       1  UNL1        0.0620
     34 H           4.2690   -0.9400    0.0000 H       1  UNL1        0.0620
     35 H           1.4631   -2.5600    0.0000 H       1  UNL1        0.0620
     36 H           4.2690   -2.5600    0.0000 H       1  UNL1        0.0620
     37 H           2.2460   -3.7500    0.0000 H       1  UNL1        0.0278
     38 H           2.8660   -4.3700    0.0000 H       1  UNL1        0.0278
     39 H           3.4860   -3.7500    0.0000 H       1  UNL1        0.0278
@<TRIPOS>BOND
     1     1     2    1
     2     1     3    1
     3     1    16    1
     4     1    17    1
     5     2     6    1
     6     2     7    1
     7     2    18    1
     8     3     4    1
     9     3    19    1
    10     3    20    1
    11     4     5    1
    12     4    21    1
    13     4    22    1
    14     5     8    1
    15     5     9    1
    16     5    23    1
    17     6    10   ar
    18     6    11   ar
    19     7    24    1
    20     7    25    1
    21     7    26    1
    22     8    27    1
    23     8    28    1
    24     8    29    1
    25     9    30    1
    26     9    31    1
    27     9    32    1
    28    10    12   ar
    29    10    33    1
    30    11    13   ar
    31    11    34    1
    32    12    14   ar
    33    12    35    1
    34    13    14   ar
    35    13    36    1
    36    14    15    1
    37    15    37    1
    38    15    38    1
    39    15    39    1
