@<TRIPOS>MOLECULE
IMPHY012486
 104 107 0 0 0
SMALL
GASTEIGER

@<TRIPOS>ATOM
      1 O           9.3116   -2.2098    0.0000 O.3     1  UNL1       -0.3760
      2 O           8.4456    1.2902    0.0000 O.3     1  UNL1       -0.4551
      3 O           7.0795    0.6563    0.0000 O.3     1  UNL1       -0.4592
      4 O           5.0663   -3.2381    0.0000 O.3     1  UNL1       -0.4545
      5 O           8.0254   -3.1595    0.0000 O.3     1  UNL1       -0.4604
      6 O          10.5685   -2.4650    0.0000 O.2     1  UNL1       -0.2939
      7 O          10.5713    2.6635    0.0000 O.2     1  UNL1       -0.4708
      8 O           3.5605   -3.2166    0.0000 O.3     1  UNL1       -0.4608
      9 O           5.7435   -4.7902    0.0000 O.2     1  UNL1       -0.2507
     10 O           4.1602    0.5730    0.0000 O.3     1  UNL1       -0.4679
     11 O           6.7135    1.2902    0.0000 O.2     1  UNL1       -0.2479
     12 O           3.7748   -1.1157    0.0000 O.2     1  UNL1       -0.2509
     13 O           5.5795    1.5223    0.0000 O.2     1  UNL1       -0.2546
     14 O           8.4456    3.2902    0.0000 O.3     1  UNL1       -0.3803
     15 O           8.7378   -4.7383    0.0000 O.2     1  UNL1       -0.2512
     16 O           2.0000   -2.4651    0.0000 O.2     1  UNL1       -0.2512
     17 C           9.3116   -0.2098    0.0000 C.3     1  UNL1        0.0552
     18 C           7.5795   -1.2098    0.0000 C.3     1  UNL1        0.0327
     19 C           9.3116   -1.2098    0.0000 C.3     1  UNL1        0.1540
     20 C           6.7135   -1.7098    0.0000 C.3     1  UNL1        0.0226
     21 C           8.4456    0.2902    0.0000 C.3     1  UNL1        0.1496
     22 C           7.5795   -0.2098    0.0000 C.3     1  UNL1        0.1472
     23 C          10.2578    0.0950    0.0000 C.3     1  UNL1        0.0061
     24 C           8.4456   -1.7098    0.0000 C.2     1  UNL1       -0.0303
     25 C           5.7247   -1.5607    0.0000 C.3     1  UNL1        0.0214
     26 C          10.8414   -0.7098    0.0000 C.3     1  UNL1        0.0167
     27 C          10.2578   -1.5145    0.0000 C.2     1  UNL1        0.1700
     28 C           7.2135   -2.5758    0.0000 C.3     1  UNL1        0.1195
     29 C           9.3116    0.7902    0.0000 C.3     1  UNL1       -0.0521
     30 C           4.9916   -2.2409    0.0000 C.3     1  UNL1        0.1483
     31 C           6.8625   -0.7209    0.0000 C.3     1  UNL1       -0.0551
     32 C          10.5685    1.0455    0.0000 C.ar    1  UNL1       -0.0055
     33 C           5.4299   -0.6051    0.0000 C.3     1  UNL1        0.0521
     34 C           6.8482   -3.5067    0.0000 C.3     1  UNL1        0.0825
     35 C           8.4456   -2.7098    0.0000 C.2     1  UNL1       -0.0959
     36 C           3.9944   -2.3156    0.0000 C.3     1  UNL1        0.1321
     37 C           4.3114   -1.5078    0.0000 C.3     1  UNL1       -0.0213
     38 C           5.8926   -3.8014    0.0000 C.2     1  UNL1        0.3113
     39 C          11.5200    1.3529    0.0000 C.ar    1  UNL1       -0.0205
     40 C           9.9821    1.8555    0.0000 C.ar    1  UNL1        0.0951
     41 C           7.5795    1.7902    0.0000 C.2     1  UNL1        0.3367
     42 C           4.4550   -0.3826    0.0000 C.2     1  UNL1        0.3072
     43 C           6.0796    0.6564    0.0000 C.2     1  UNL1        0.2946
     44 C          11.5218    2.3529    0.0000 C.ar    1  UNL1        0.0920
     45 C           7.5795    2.7902    0.0000 C.3     1  UNL1        0.1541
     46 C           7.9259   -4.1546    0.0000 C.2     1  UNL1        0.3042
     47 C           6.7135    3.2902    0.0000 C.3     1  UNL1       -0.0076
     48 C           7.0144   -4.5658    0.0000 C.3     1  UNL1        0.0332
     49 C           2.5633   -3.2913    0.0000 C.2     1  UNL1        0.3041
     50 C           6.7135    4.2902    0.0000 C.3     1  UNL1       -0.0504
     51 C           5.8475    2.7902    0.0000 C.3     1  UNL1       -0.0595
     52 C           3.1853    0.7955    0.0000 C.3     1  UNL1        0.0817
     53 C           2.1294   -4.1923    0.0000 C.3     1  UNL1        0.0332
     54 C           5.8475    4.7902    0.0000 C.3     1  UNL1       -0.0649
     55 H           7.5795   -1.8298    0.0000 H       1  UNL1        0.0390
     56 H           7.9086    0.6002    0.0000 H       1  UNL1        0.0779
     57 H           6.9806   -0.3702    0.0000 H       1  UNL1        0.0778
     58 H          10.8703    0.1912    0.0000 H       1  UNL1        0.0361
     59 H           5.1258   -1.4002    0.0000 H       1  UNL1        0.0352
     60 H          11.3023   -1.1245    0.0000 H       1  UNL1        0.0349
     61 H          11.3023   -0.2950    0.0000 H       1  UNL1        0.0349
     62 H           7.6732   -2.1598    0.0000 H       1  UNL1        0.0745
     63 H           9.9316    0.7902    0.0000 H       1  UNL1        0.0238
     64 H           9.3116    1.4102    0.0000 H       1  UNL1        0.0238
     65 H           8.6916    0.7902    0.0000 H       1  UNL1        0.0238
     66 H           7.4756   -0.8133    0.0000 H       1  UNL1        0.0237
     67 H           6.9549   -0.1079    0.0000 H       1  UNL1        0.0237
     68 H           6.2495   -0.6285    0.0000 H       1  UNL1        0.0237
     69 H           6.0451   -0.5280    0.0000 H       1  UNL1        0.0382
     70 H           5.4608    0.0141    0.0000 H       1  UNL1        0.0382
     71 H           9.8485   -2.5198    0.0000 H       1  UNL1        0.2112
     72 H           6.8945   -4.1249    0.0000 H       1  UNL1        0.0414
     73 H           7.4612   -3.5991    0.0000 H       1  UNL1        0.0414
     74 H           7.9086   -3.0198    0.0000 H       1  UNL1        0.0536
     75 H           8.9825   -3.0198    0.0000 H       1  UNL1        0.0536
     76 H           4.0561   -1.6987    0.0000 H       1  UNL1        0.0738
     77 H           3.3976   -2.1477    0.0000 H       1  UNL1        0.0738
     78 H           4.7659   -1.0861    0.0000 H       1  UNL1        0.0269
     79 H           3.8897   -1.0533    0.0000 H       1  UNL1        0.0269
     80 H           3.8570   -1.9295    0.0000 H       1  UNL1        0.0269
     81 H          12.0210    0.9876    0.0000 H       1  UNL1        0.0652
     82 H           9.3621    1.8566    0.0000 H       1  UNL1        0.1032
     83 H           5.7695    0.1194    0.0000 H       1  UNL1        0.1512
     84 H          12.0240    2.7164    0.0000 H       1  UNL1        0.1029
     85 H           7.5795    3.4102    0.0000 H       1  UNL1        0.0713
     86 H           6.1766    3.6002    0.0000 H       1  UNL1        0.0328
     87 H           6.7594   -4.0007    0.0000 H       1  UNL1        0.0342
     88 H           6.4492   -4.8208    0.0000 H       1  UNL1        0.0342
     89 H           7.2694   -5.1310    0.0000 H       1  UNL1        0.0342
     90 H           8.4456    3.9102    0.0000 H       1  UNL1        0.2105
     91 H           7.3241    4.1826    0.0000 H       1  UNL1        0.0266
     92 H           6.9256    4.8728    0.0000 H       1  UNL1        0.0266
     93 H           5.5375    3.3272    0.0000 H       1  UNL1        0.0233
     94 H           5.3105    2.4802    0.0000 H       1  UNL1        0.0233
     95 H           6.1575    2.2533    0.0000 H       1  UNL1        0.0233
     96 H           3.3233    1.3999    0.0000 H       1  UNL1        0.0661
     97 H           2.5808    0.9334    0.0000 H       1  UNL1        0.0661
     98 H           3.0473    0.1910    0.0000 H       1  UNL1        0.0661
     99 H           1.5708   -3.9233    0.0000 H       1  UNL1        0.0342
    100 H           1.8604   -4.7509    0.0000 H       1  UNL1        0.0342
    101 H           2.6880   -4.4613    0.0000 H       1  UNL1        0.0342
    102 H           6.1575    5.3272    0.0000 H       1  UNL1        0.0230
    103 H           5.3105    5.1002    0.0000 H       1  UNL1        0.0230
    104 H           5.5375    4.2533    0.0000 H       1  UNL1        0.0230
@<TRIPOS>BOND
     1     1    19    1
     2     1    71    1
     3     2    21    1
     4     2    41    1
     5     3    22    1
     6     3    43    1
     7     4    30    1
     8     4    38    1
     9     5    28    1
    10     5    46    1
    11     6    27    2
    12     7    40   ar
    13     7    44   ar
    14     8    36    1
    15     8    49    1
    16     9    38    2
    17    10    42    1
    18    10    52    1
    19    11    41    2
    20    12    42    2
    21    13    43    2
    22    14    45    1
    23    14    90    1
    24    15    46    2
    25    16    49    2
    26    17    19    1
    27    17    21    1
    28    17    23    1
    29    17    29    1
    30    18    20    1
    31    18    22    1
    32    18    24    1
    33    18    55    1
    34    19    24    1
    35    19    27    1
    36    20    25    1
    37    20    28    1
    38    20    31    1
    39    21    22    1
    40    21    56    1
    41    22    57    1
    42    23    26    1
    43    23    32    1
    44    23    58    1
    45    24    35    2
    46    25    30    1
    47    25    33    1
    48    25    59    1
    49    26    27    1
    50    26    60    1
    51    26    61    1
    52    28    34    1
    53    28    62    1
    54    29    63    1
    55    29    64    1
    56    29    65    1
    57    30    36    1
    58    30    37    1
    59    31    66    1
    60    31    67    1
    61    31    68    1
    62    32    39   ar
    63    32    40   ar
    64    33    42    1
    65    33    69    1
    66    33    70    1
    67    34    38    1
    68    34    72    1
    69    34    73    1
    70    35    74    1
    71    35    75    1
    72    36    76    1
    73    36    77    1
    74    37    78    1
    75    37    79    1
    76    37    80    1
    77    39    44   ar
    78    39    81    1
    79    40    82    1
    80    41    45    1
    81    43    83    1
    82    44    84    1
    83    45    47    1
    84    45    85    1
    85    46    48    1
    86    47    50    1
    87    47    51    1
    88    47    86    1
    89    48    87    1
    90    48    88    1
    91    48    89    1
    92    49    53    1
    93    50    54    1
    94    50    91    1
    95    50    92    1
    96    51    93    1
    97    51    94    1
    98    51    95    1
    99    52    96    1
   100    52    97    1
   101    52    98    1
   102    53    99    1
   103    53   100    1
   104    53   101    1
   105    54   102    1
   106    54   103    1
   107    54   104    1
