@<TRIPOS>MOLECULE
IMPHY007898
 40 44 0 0 0
SMALL
GASTEIGER

@<TRIPOS>ATOM
      1 O           6.3002   -1.1621    0.0000 O.3     1  UNL1       -0.3886
      2 O           8.0819   -0.1517    0.0000 O.3     1  UNL1       -0.3892
      3 O           3.4519   -2.7090    0.0000 O.3     1  UNL1       -0.4526
      4 O           2.0000   -1.8708    0.0000 O.3     1  UNL1       -0.4526
      5 N           4.5518    1.8725    0.0000 N.3     1  UNL1       -0.2943
      6 C           5.4178    1.3725    0.0000 C.3     1  UNL1        0.0229
      7 C           6.3117    1.9072    0.0000 C.3     1  UNL1       -0.0212
      8 C           5.4178    0.3725    0.0000 C.3     1  UNL1        0.0288
      9 C           5.9105    2.8164    0.0000 C.3     1  UNL1       -0.0358
     10 C           7.2178    1.3933    0.0000 C.3     1  UNL1       -0.0201
     11 C           6.3117   -0.1622    0.0000 C.3     1  UNL1        0.0893
     12 C           4.9169    2.7968    0.0000 C.3     1  UNL1       -0.0002
     13 C           7.2178    0.3517    0.0000 C.3     1  UNL1        0.0820
     14 C           4.5518   -0.1275    0.0000 C.ar    1  UNL1       -0.0322
     15 C           3.6857    1.3725    0.0000 C.3     1  UNL1        0.0247
     16 C           3.6857    0.3725    0.0000 C.ar    1  UNL1       -0.0261
     17 C           4.5678   -1.1690    0.0000 C.ar    1  UNL1       -0.0123
     18 C           2.7757   -0.1344    0.0000 C.ar    1  UNL1       -0.0115
     19 C           3.6698   -1.6968    0.0000 C.ar    1  UNL1        0.1665
     20 C           2.7677   -1.1760    0.0000 C.ar    1  UNL1        0.1665
     21 C           2.4220   -2.8164    0.0000 C.3     1  UNL1        0.2332
     22 H           6.1539    0.9475    0.0000 H       1  UNL1        0.0472
     23 H           6.9421    2.4773    0.0000 H       1  UNL1        0.0317
     24 H           5.4112   -0.4775    0.0000 H       1  UNL1        0.0390
     25 H           6.5057    2.9899    0.0000 H       1  UNL1        0.0281
     26 H           5.8168    3.4293    0.0000 H       1  UNL1        0.0281
     27 H           7.8286    1.2872    0.0000 H       1  UNL1        0.0294
     28 H           7.4268    1.9770    0.0000 H       1  UNL1        0.0294
     29 H           6.8456   -0.4773    0.0000 H       1  UNL1        0.0625
     30 H           4.9863    3.4129    0.0000 H       1  UNL1        0.0427
     31 H           4.3153    2.9467    0.0000 H       1  UNL1        0.0427
     32 H           7.7553    0.6606    0.0000 H       1  UNL1        0.0619
     33 H           3.4737    1.9551    0.0000 H       1  UNL1        0.0476
     34 H           3.0752    1.2648    0.0000 H       1  UNL1        0.0476
     35 H           5.1083   -1.4728    0.0000 H       1  UNL1        0.0658
     36 H           6.8335   -1.4783    0.0000 H       1  UNL1        0.2099
     37 H           2.2424    0.1818    0.0000 H       1  UNL1        0.0658
     38 H           8.6200    0.1563    0.0000 H       1  UNL1        0.2099
     39 H           1.8324   -3.0081    0.0000 H       1  UNL1        0.1166
     40 H           2.5507   -3.4229    0.0000 H       1  UNL1        0.1166
@<TRIPOS>BOND
     1    11     1    1
     2     1    36    1
     3    13     2    1
     4     2    38    1
     5     3    19    1
     6     3    21    1
     7     4    20    1
     8     4    21    1
     9     5     6    1
    10     5    12    1
    11     5    15    1
    12     6     7    1
    13     6     8    1
    14     6    22    1
    15     7     9    1
    16     7    10    1
    17     7    23    1
    18     8    11    1
    19     8    14    1
    20     8    24    1
    21     9    12    1
    22     9    25    1
    23     9    26    1
    24    10    13    1
    25    10    27    1
    26    10    28    1
    27    11    13    1
    28    11    29    1
    29    12    30    1
    30    12    31    1
    31    13    32    1
    32    14    16   ar
    33    14    17   ar
    34    15    16    1
    35    15    33    1
    36    15    34    1
    37    16    18   ar
    38    17    19   ar
    39    17    35    1
    40    18    20   ar
    41    18    37    1
    42    19    20   ar
    43    21    39    1
    44    21    40    1
