@<TRIPOS>MOLECULE
IMPHY013897
 27 28 0 0 0
SMALL
GASTEIGER

@<TRIPOS>ATOM
      1 O           7.2764    0.5547    0.0000 O.3     1  UNL1       -0.4489
      2 O           7.2764   -1.0547    0.0000 O.3     1  UNL1       -0.4524
      3 O           5.4641    1.7500    0.0000 O.3     1  UNL1       -0.4913
      4 O           3.7320   -2.2500    0.0000 O.2     1  UNL1       -0.2921
      5 C           6.3301    0.2500    0.0000 C.ar    1  UNL1        0.2076
      6 C           6.3301   -0.7500    0.0000 C.ar    1  UNL1        0.1706
      7 C           4.5981   -0.7500    0.0000 C.ar    1  UNL1        0.0245
      8 C           5.4641    0.7500    0.0000 C.ar    1  UNL1        0.1660
      9 C           5.4641   -1.2500    0.0000 C.ar    1  UNL1       -0.0054
     10 C           4.5981    0.2500    0.0000 C.ar    1  UNL1       -0.0056
     11 C           3.7320   -1.2500    0.0000 C.2     1  UNL1        0.1631
     12 C           7.8600   -0.2500    0.0000 C.3     1  UNL1        0.2334
     13 C           2.8660   -0.7500    0.0000 C.3     1  UNL1        0.0076
     14 C           2.0000   -1.2500    0.0000 C.3     1  UNL1       -0.0582
     15 C           4.5981    2.2500    0.0000 C.3     1  UNL1        0.0790
     16 H           5.4641   -1.8700    0.0000 H       1  UNL1        0.0662
     17 H           4.0611    0.5600    0.0000 H       1  UNL1        0.0662
     18 H           8.3208   -0.6647    0.0000 H       1  UNL1        0.1166
     19 H           8.3208    0.1647    0.0000 H       1  UNL1        0.1166
     20 H           3.2646   -0.2751    0.0000 H       1  UNL1        0.0342
     21 H           2.4675   -0.2751    0.0000 H       1  UNL1        0.0342
     22 H           1.6900   -0.7131    0.0000 H       1  UNL1        0.0234
     23 H           1.4631   -1.5600    0.0000 H       1  UNL1        0.0234
     24 H           2.3100   -1.7869    0.0000 H       1  UNL1        0.0234
     25 H           4.9081    2.7869    0.0000 H       1  UNL1        0.0660
     26 H           4.0611    2.5600    0.0000 H       1  UNL1        0.0660
     27 H           4.2881    1.7131    0.0000 H       1  UNL1        0.0660
@<TRIPOS>BOND
     1     1     5    1
     2     1    12    1
     3     2     6    1
     4     2    12    1
     5     3     8    1
     6     3    15    1
     7     4    11    2
     8     5     6   ar
     9     5     8   ar
    10     6     9   ar
    11     7     9   ar
    12     7    10   ar
    13     7    11    1
    14     8    10   ar
    15     9    16    1
    16    10    17    1
    17    11    13    1
    18    12    18    1
    19    12    19    1
    20    13    14    1
    21    13    20    1
    22    13    21    1
    23    14    22    1
    24    14    23    1
    25    14    24    1
    26    15    25    1
    27    15    26    1
    28    15    27    1
