@<TRIPOS>MOLECULE
IMPHY004824
 52 56 0 0 0
SMALL
GASTEIGER

@<TRIPOS>ATOM
      1 O           6.0427   -0.6444    0.0000 O.3     1  UNL1       -0.4832
      2 O           6.9608    1.9040    0.0000 O.3     1  UNL1       -0.4879
      3 O           4.5204   -3.7242    0.0000 O.3     1  UNL1       -0.4837
      4 O           3.4446    0.8556    0.0000 O.2     1  UNL1       -0.2910
      5 O           2.5405   -0.6413    0.0000 O.3     1  UNL1       -0.5058
      6 O           3.3202    3.9925    0.0000 O.3     1  UNL1       -0.4914
      7 O           5.1236    5.0523    0.0000 O.3     1  UNL1       -0.4913
      8 C           5.1767    0.8556    0.0000 C.3     1  UNL1        0.0909
      9 C           6.0427    0.3556    0.0000 C.3     1  UNL1        0.1479
     10 C           5.1767   -1.1444    0.0000 C.ar    1  UNL1        0.1419
     11 C           5.1606    1.8971    0.0000 C.ar    1  UNL1        0.0122
     12 C           4.3107    0.3556    0.0000 C.2     1  UNL1        0.1813
     13 C           5.1928   -2.1859    0.0000 C.ar    1  UNL1        0.0406
     14 C           4.3107   -0.6444    0.0000 C.ar    1  UNL1        0.1015
     15 C           6.9527    0.8624    0.0000 C.3     1  UNL1        0.1273
     16 C           5.9658   -2.8748    0.0000 C.3     1  UNL1        0.0204
     17 C           5.5511   -3.8236    0.0000 C.3     1  UNL1        0.1249
     18 C           4.2947   -2.7137    0.0000 C.ar    1  UNL1        0.1317
     19 C           6.0587    2.4248    0.0000 C.ar    1  UNL1        0.1283
     20 C           3.4007   -1.1513    0.0000 C.ar    1  UNL1        0.1344
     21 C           3.3926   -2.1929    0.0000 C.ar    1  UNL1        0.0228
     22 C           4.2087    2.4177    0.0000 C.ar    1  UNL1       -0.0088
     23 C           6.0578   -4.6858    0.0000 C.2     1  UNL1       -0.0395
     24 C           6.0670    3.5098    0.0000 C.ar    1  UNL1        0.0257
     25 C           4.1920    3.5026    0.0000 C.ar    1  UNL1        0.1620
     26 C           5.1274    4.0523    0.0000 C.ar    1  UNL1        0.1650
     27 C           5.5645   -5.5556    0.0000 C.3     1  UNL1       -0.0406
     28 C           7.0577   -4.6781    0.0000 C.2     1  UNL1       -0.0962
     29 C           3.3087    4.9925    0.0000 C.3     1  UNL1        0.0790
     30 C           5.9876    5.5556    0.0000 C.3     1  UNL1        0.0790
     31 H           4.4373    1.2749    0.0000 H       1  UNL1        0.0469
     32 H           6.7756   -0.0751    0.0000 H       1  UNL1        0.0778
     33 H           7.1573    0.2771    0.0000 H       1  UNL1        0.0734
     34 H           7.5644    0.9638    0.0000 H       1  UNL1        0.0734
     35 H           6.5047   -3.1815    0.0000 H       1  UNL1        0.0355
     36 H           6.3274   -2.3712    0.0000 H       1  UNL1        0.0355
     37 H           5.2177   -4.3464    0.0000 H       1  UNL1        0.0784
     38 H           2.8545   -2.5008    0.0000 H       1  UNL1        0.0691
     39 H           3.6778    2.0974    0.0000 H       1  UNL1        0.0659
     40 H           6.6052    3.8177    0.0000 H       1  UNL1        0.0692
     41 H           5.0252   -5.2498    0.0000 H       1  UNL1        0.0275
     42 H           5.2586   -6.0950    0.0000 H       1  UNL1        0.0275
     43 H           6.1038   -5.8615    0.0000 H       1  UNL1        0.0275
     44 H           2.0000   -0.9450    0.0000 H       1  UNL1        0.2922
     45 H           7.3719   -5.2126    0.0000 H       1  UNL1        0.0535
     46 H           7.3636   -4.1388    0.0000 H       1  UNL1        0.0535
     47 H           3.9286    4.9996    0.0000 H       1  UNL1        0.0660
     48 H           3.3015    5.6124    0.0000 H       1  UNL1        0.0660
     49 H           2.6887    4.9853    0.0000 H       1  UNL1        0.0660
     50 H           6.2997    5.0199    0.0000 H       1  UNL1        0.0660
     51 H           6.5234    5.8677    0.0000 H       1  UNL1        0.0660
     52 H           5.6756    6.0914    0.0000 H       1  UNL1        0.0660
@<TRIPOS>BOND
     1     1     9    1
     2     1    10    1
     3     2    15    1
     4     2    19    1
     5     3    17    1
     6     3    18    1
     7     4    12    2
     8     5    20    1
     9     5    44    1
    10     6    25    1
    11     6    29    1
    12     7    26    1
    13     7    30    1
    14     8     9    1
    15     8    11    1
    16     8    12    1
    17     8    31    1
    18     9    15    1
    19     9    32    1
    20    10    13   ar
    21    10    14   ar
    22    11    19   ar
    23    11    22   ar
    24    12    14    1
    25    13    16    1
    26    13    18   ar
    27    14    20   ar
    28    15    33    1
    29    15    34    1
    30    16    17    1
    31    16    35    1
    32    16    36    1
    33    17    23    1
    34    17    37    1
    35    18    21   ar
    36    19    24   ar
    37    20    21   ar
    38    21    38    1
    39    22    25   ar
    40    22    39    1
    41    23    27    1
    42    23    28    2
    43    24    26   ar
    44    24    40    1
    45    25    26   ar
    46    27    41    1
    47    27    42    1
    48    27    43    1
    49    28    45    1
    50    28    46    1
    51    29    47    1
    52    29    48    1
    53    29    49    1
    54    30    50    1
    55    30    51    1
    56    30    52    1
