@<TRIPOS>MOLECULE
IMPHY017527
 28 28 0 0 0
SMALL
GASTEIGER

@<TRIPOS>ATOM
      1 F           4.5981    3.2500    0.0000 F       1  UNL1       -0.1671
      2 F           5.5981    2.2500    0.0000 F       1  UNL1       -0.1671
      3 F           3.5981    2.2500    0.0000 F       1  UNL1       -0.1671
      4 O           3.7320    0.7500    0.0000 O.3     1  UNL1       -0.4825
      5 C           3.7320   -0.2500    0.0000 C.ar    1  UNL1        0.1267
      6 C           4.5981   -0.7500    0.0000 C.ar    1  UNL1       -0.0083
      7 C           2.8660   -0.7500    0.0000 C.ar    1  UNL1       -0.0083
      8 C           3.7320   -2.2500    0.0000 C.ar    1  UNL1       -0.0497
      9 C           4.5981   -1.7500    0.0000 C.ar    1  UNL1       -0.0524
     10 C           2.8660   -1.7500    0.0000 C.ar    1  UNL1       -0.0524
     11 C           5.4641   -0.2500    0.0000 C.3     1  UNL1       -0.0362
     12 C           2.0000   -0.2500    0.0000 C.3     1  UNL1       -0.0362
     13 C           3.7320   -3.2500    0.0000 C.3     1  UNL1       -0.0397
     14 C           4.5981    1.2500    0.0000 C.3     1  UNL1        0.1842
     15 C           4.5981    2.2500    0.0000 C.3     1  UNL1        0.4236
     16 H           5.1350   -2.0600    0.0000 H       1  UNL1        0.0624
     17 H           2.3291   -2.0600    0.0000 H       1  UNL1        0.0624
     18 H           5.7741   -0.7869    0.0000 H       1  UNL1        0.0279
     19 H           6.0010    0.0600    0.0000 H       1  UNL1        0.0279
     20 H           5.1541    0.2869    0.0000 H       1  UNL1        0.0279
     21 H           2.3100    0.2869    0.0000 H       1  UNL1        0.0279
     22 H           1.4631    0.0600    0.0000 H       1  UNL1        0.0279
     23 H           1.6900   -0.7869    0.0000 H       1  UNL1        0.0279
     24 H           4.8101    0.6674    0.0000 H       1  UNL1        0.0788
     25 H           5.2087    1.3577    0.0000 H       1  UNL1        0.0788
     26 H           3.1120   -3.2500    0.0000 H       1  UNL1        0.0278
     27 H           3.7320   -3.8700    0.0000 H       1  UNL1        0.0278
     28 H           4.3520   -3.2500    0.0000 H       1  UNL1        0.0278
@<TRIPOS>BOND
     1     1    15    1
     2     2    15    1
     3     3    15    1
     4     4     5    1
     5     4    14    1
     6     5     6   ar
     7     5     7   ar
     8     6     9   ar
     9     6    11    1
    10     7    10   ar
    11     7    12    1
    12     8     9   ar
    13     8    10   ar
    14     8    13    1
    15     9    16    1
    16    10    17    1
    17    11    18    1
    18    11    19    1
    19    11    20    1
    20    12    21    1
    21    12    22    1
    22    12    23    1
    23    13    26    1
    24    13    27    1
    25    13    28    1
    26    14    15    1
    27    14    24    1
    28    14    25    1
