@<TRIPOS>MOLECULE
IMPHY000046
 85 89 0 0 0
SMALL
GASTEIGER

@<TRIPOS>ATOM
      1 O           3.7320   -1.9563    0.0000 O.3     1  UNL1       -0.4604
      2 O           6.5270    1.5961    0.0000 O.2     1  UNL1       -0.2923
      3 O           5.5463   -3.7342    0.0000 O.3     1  UNL1       -0.4801
      4 O           4.0430   -2.8739    0.0000 O.2     1  UNL1       -0.2503
      5 O           2.8718   -0.4529    0.0000 O.2     1  UNL1       -0.2512
      6 C           8.2591   -0.4039    0.0000 C.3     1  UNL1       -0.0127
      7 C           9.1251    0.0961    0.0000 C.3     1  UNL1       -0.0043
      8 C           6.4831   -0.4108    0.0000 C.3     1  UNL1       -0.0177
      9 C           7.3931    0.0961    0.0000 C.3     1  UNL1        0.0333
     10 C           6.4750   -1.4524    0.0000 C.3     1  UNL1       -0.0160
     11 C           8.2752   -1.4454    0.0000 C.3     1  UNL1       -0.0459
     12 C          10.0191    1.6307    0.0000 C.3     1  UNL1       -0.0108
     13 C           9.1251    1.0961    0.0000 C.2     1  UNL1       -0.0560
     14 C          10.9251    1.1169    0.0000 C.3     1  UNL1       -0.0252
     15 C           7.3771   -1.9732    0.0000 C.3     1  UNL1       -0.0480
     16 C          10.0191   -0.4386    0.0000 C.3     1  UNL1       -0.0429
     17 C           5.5396   -2.0021    0.0000 C.3     1  UNL1        0.1047
     18 C           5.5562    0.1533    0.0000 C.3     1  UNL1       -0.0433
     19 C          10.9251    0.0752    0.0000 C.3     1  UNL1       -0.0463
     20 C           7.3931    1.0961    0.0000 C.2     1  UNL1        0.1602
     21 C           8.9019   -1.1700    0.0000 C.3     1  UNL1       -0.0581
     22 C           9.9940    2.7154    0.0000 C.3     1  UNL1       -0.0343
     23 C           4.6000   -1.4596    0.0000 C.3     1  UNL1        0.1188
     24 C           9.4672   -0.8436    0.0000 C.3     1  UNL1       -0.0553
     25 C           6.4908    0.5892    0.0000 C.3     1  UNL1       -0.0586
     26 C           8.2591    1.5961    0.0000 C.2     1  UNL1       -0.0188
     27 C           4.6084   -0.3747    0.0000 C.3     1  UNL1       -0.0141
     28 C          11.8689    1.6521    0.0000 C.3     1  UNL1       -0.0468
     29 C          10.9251    3.2723    0.0000 C.3     1  UNL1       -0.0407
     30 C          11.8689    2.7371    0.0000 C.3     1  UNL1       -0.0497
     31 C          11.7950    0.6236    0.0000 C.3     1  UNL1       -0.0590
     32 C           6.0430   -2.8662    0.0000 C.3     1  UNL1       -0.0457
     33 C           5.0430   -2.8701    0.0000 C.2     1  UNL1        0.3145
     34 C           9.1185    3.1986    0.0000 C.3     1  UNL1       -0.0616
     35 C          10.9136    4.2723    0.0000 C.3     1  UNL1       -0.0622
     36 C           2.8680   -1.4529    0.0000 C.2     1  UNL1        0.3042
     37 C           2.0000   -1.9496    0.0000 C.3     1  UNL1        0.0332
     38 H           8.1292    0.5211    0.0000 H       1  UNL1        0.0392
     39 H           6.4783   -2.3024    0.0000 H       1  UNL1        0.0318
     40 H           8.4932   -2.0258    0.0000 H       1  UNL1        0.0271
     41 H           8.8843   -1.3300    0.0000 H       1  UNL1        0.0271
     42 H           9.2749    2.0415    0.0000 H       1  UNL1        0.0354
     43 H           6.9798   -2.4492    0.0000 H       1  UNL1        0.0269
     44 H           7.7781   -2.4461    0.0000 H       1  UNL1        0.0269
     45 H           9.6145   -0.9084    0.0000 H       1  UNL1        0.0274
     46 H          10.4127   -0.9176    0.0000 H       1  UNL1        0.0274
     47 H           5.9644    0.6199    0.0000 H       1  UNL1        0.0272
     48 H           5.1663    0.6353    0.0000 H       1  UNL1        0.0272
     49 H          11.1342   -0.5084    0.0000 H       1  UNL1        0.0271
     50 H          11.5360    0.1813    0.0000 H       1  UNL1        0.0271
     51 H           8.4269   -1.5685    0.0000 H       1  UNL1        0.0236
     52 H           9.3004   -1.6449    0.0000 H       1  UNL1        0.0236
     53 H           9.3768   -0.7715    0.0000 H       1  UNL1        0.0236
     54 H           9.9832    3.3353    0.0000 H       1  UNL1        0.0307
     55 H           4.0648   -1.1465    0.0000 H       1  UNL1        0.0745
     56 H           8.8846   -1.0557    0.0000 H       1  UNL1        0.0238
     57 H           9.6794   -1.4262    0.0000 H       1  UNL1        0.0238
     58 H          10.0498   -0.6315    0.0000 H       1  UNL1        0.0238
     59 H           7.1108    0.5844    0.0000 H       1  UNL1        0.0235
     60 H           6.4956    1.2092    0.0000 H       1  UNL1        0.0235
     61 H           5.8708    0.5940    0.0000 H       1  UNL1        0.0235
     62 H           8.2591    2.2161    0.0000 H       1  UNL1        0.0652
     63 H           4.4038    0.2106    0.0000 H       1  UNL1        0.0301
     64 H           3.9967   -0.4760    0.0000 H       1  UNL1        0.0301
     65 H          12.0780    1.0684    0.0000 H       1  UNL1        0.0271
     66 H          12.4798    1.7582    0.0000 H       1  UNL1        0.0271
     67 H          10.3841    3.5751    0.0000 H       1  UNL1        0.0301
     68 H          12.4798    2.6310    0.0000 H       1  UNL1        0.0268
     69 H          12.0780    3.3208    0.0000 H       1  UNL1        0.0268
     70 H          11.4891    0.0843    0.0000 H       1  UNL1        0.0235
     71 H          12.3343    0.3177    0.0000 H       1  UNL1        0.0235
     72 H          12.1008    1.1629    0.0000 H       1  UNL1        0.0235
     73 H           5.5072   -3.1783    0.0000 H       1  UNL1        0.0242
     74 H           6.3550   -3.4019    0.0000 H       1  UNL1        0.0242
     75 H           6.5787   -2.5541    0.0000 H       1  UNL1        0.0242
     76 H           9.4181    3.7414    0.0000 H       1  UNL1        0.0233
     77 H           8.5757    3.4982    0.0000 H       1  UNL1        0.0233
     78 H           8.8189    2.6558    0.0000 H       1  UNL1        0.0233
     79 H          11.5335    4.2794    0.0000 H       1  UNL1        0.0233
     80 H          10.9064    4.8922    0.0000 H       1  UNL1        0.0233
     81 H          10.2936    4.2651    0.0000 H       1  UNL1        0.0233
     82 H           5.2384   -4.2723    0.0000 H       1  UNL1        0.2951
     83 H           1.6921   -1.4115    0.0000 H       1  UNL1        0.0342
     84 H           1.4619   -2.2575    0.0000 H       1  UNL1        0.0342
     85 H           2.3079   -2.4877    0.0000 H       1  UNL1        0.0342
@<TRIPOS>BOND
     1    23     1    1
     2     1    36    1
     3     2    20    2
     4     3    33    1
     5     3    82    1
     6     4    33    2
     7     5    36    2
     8     6     7    1
     9     6     9    1
    10     6    11    1
    11     6    21    1
    12     7    13    1
    13     7    16    1
    14     7    24    1
    15     8     9    1
    16     8    10    1
    17     8    18    1
    18     8    25    1
    19     9    20    1
    20     9    38    1
    21    10    15    1
    22    10    17    1
    23    10    39    1
    24    11    15    1
    25    11    40    1
    26    11    41    1
    27    12    13    1
    28    12    14    1
    29    12    22    1
    30    12    42    1
    31    13    26    2
    32    14    19    1
    33    14    28    1
    34    14    31    1
    35    15    43    1
    36    15    44    1
    37    16    19    1
    38    16    45    1
    39    16    46    1
    40    17    23    1
    41    17    32    1
    42    17    33    1
    43    18    27    1
    44    18    47    1
    45    18    48    1
    46    19    49    1
    47    19    50    1
    48    20    26    1
    49    21    51    1
    50    21    52    1
    51    21    53    1
    52    22    29    1
    53    22    34    1
    54    22    54    1
    55    23    27    1
    56    23    55    1
    57    24    56    1
    58    24    57    1
    59    24    58    1
    60    25    59    1
    61    25    60    1
    62    25    61    1
    63    26    62    1
    64    27    63    1
    65    27    64    1
    66    28    30    1
    67    28    65    1
    68    28    66    1
    69    29    30    1
    70    29    35    1
    71    29    67    1
    72    30    68    1
    73    30    69    1
    74    31    70    1
    75    31    71    1
    76    31    72    1
    77    32    73    1
    78    32    74    1
    79    32    75    1
    80    34    76    1
    81    34    77    1
    82    34    78    1
    83    35    79    1
    84    35    80    1
    85    35    81    1
    86    36    37    1
    87    37    83    1
    88    37    84    1
    89    37    85    1
