@<TRIPOS>MOLECULE
IMPHY001619
 41 42 0 0 0
SMALL
GASTEIGER

@<TRIPOS>ATOM
      1 O           4.2690   -1.2500    0.0000 O.3     1  UNL1       -0.3405
      2 O           6.0010   -1.2500    0.0000 O.3     1  UNL1       -0.3484
      3 O           4.2690   -4.2500    0.0000 O.3     1  UNL1       -0.3864
      4 O           2.5369   -3.2500    0.0000 O.3     1  UNL1       -0.3865
      5 O           6.0010   -3.2500    0.0000 O.3     1  UNL1       -0.3841
      6 O           2.5369   -0.2500    0.0000 O.3     1  UNL1       -0.3924
      7 O           6.8671    4.2500    0.0000 O.3     1  UNL1       -0.5068
      8 C           4.2690   -3.2500    0.0000 C.3     1  UNL1        0.1141
      9 C           3.4030   -2.7500    0.0000 C.3     1  UNL1        0.1119
     10 C           5.1350   -2.7500    0.0000 C.3     1  UNL1        0.1341
     11 C           3.4030   -1.7500    0.0000 C.3     1  UNL1        0.1130
     12 C           5.1350   -1.7500    0.0000 C.3     1  UNL1        0.1879
     13 C           2.5369   -1.2500    0.0000 C.3     1  UNL1        0.0730
     14 C           6.0010   -0.2500    0.0000 C.3     1  UNL1        0.0547
     15 C           6.8671    0.2500    0.0000 C.3     1  UNL1       -0.0040
     16 C           6.8671    1.2500    0.0000 C.ar    1  UNL1       -0.0450
     17 C           7.7331    1.7500    0.0000 C.ar    1  UNL1       -0.0551
     18 C           6.0010    1.7500    0.0000 C.ar    1  UNL1       -0.0551
     19 C           7.7331    2.7500    0.0000 C.ar    1  UNL1       -0.0199
     20 C           6.0010    2.7500    0.0000 C.ar    1  UNL1       -0.0199
     21 C           6.8671    3.2500    0.0000 C.ar    1  UNL1        0.1169
     22 H           4.8059   -3.5600    0.0000 H       1  UNL1        0.0648
     23 H           3.4030   -3.3700    0.0000 H       1  UNL1        0.0647
     24 H           5.6720   -2.4400    0.0000 H       1  UNL1        0.0671
     25 H           3.4030   -1.1300    0.0000 H       1  UNL1        0.0647
     26 H           5.1350   -1.1300    0.0000 H       1  UNL1        0.0937
     27 H           1.9264   -1.1423    0.0000 H       1  UNL1        0.0584
     28 H           2.3249   -1.8326    0.0000 H       1  UNL1        0.0584
     29 H           3.7320   -4.5600    0.0000 H       1  UNL1        0.2100
     30 H           2.0000   -2.9400    0.0000 H       1  UNL1        0.2100
     31 H           6.5380   -2.9400    0.0000 H       1  UNL1        0.2101
     32 H           5.7890    0.3326    0.0000 H       1  UNL1        0.0564
     33 H           5.3905   -0.3577    0.0000 H       1  UNL1        0.0564
     34 H           7.0791   -0.3326    0.0000 H       1  UNL1        0.0335
     35 H           7.4776    0.3577    0.0000 H       1  UNL1        0.0335
     36 H           2.0000    0.0600    0.0000 H       1  UNL1        0.2095
     37 H           8.2700    1.4400    0.0000 H       1  UNL1        0.0621
     38 H           5.4641    1.4400    0.0000 H       1  UNL1        0.0621
     39 H           8.2700    3.0600    0.0000 H       1  UNL1        0.0654
     40 H           5.4641    3.0600    0.0000 H       1  UNL1        0.0654
     41 H           7.4040    4.5600    0.0000 H       1  UNL1        0.2921
@<TRIPOS>BOND
     1     1    11    1
     2     1    12    1
     3    12     2    1
     4     2    14    1
     5     8     3    1
     6     3    29    1
     7     9     4    1
     8     4    30    1
     9    10     5    1
    10     5    31    1
    11     6    13    1
    12     6    36    1
    13     7    21    1
    14     7    41    1
    15     8     9    1
    16     8    10    1
    17     8    22    1
    18     9    11    1
    19     9    23    1
    20    10    12    1
    21    10    24    1
    22    11    13    1
    23    11    25    1
    24    12    26    1
    25    13    27    1
    26    13    28    1
    27    14    15    1
    28    14    32    1
    29    14    33    1
    30    15    16    1
    31    15    34    1
    32    15    35    1
    33    16    17   ar
    34    16    18   ar
    35    17    19   ar
    36    17    37    1
    37    18    20   ar
    38    18    38    1
    39    19    21   ar
    40    19    39    1
    41    20    21   ar
    42    20    40    1
