@<TRIPOS>MOLECULE
IMPHY006141
 33 35 0 0 0
SMALL
GASTEIGER

@<TRIPOS>ATOM
      1 CL          7.0444    0.0492    0.0000 Cl      1  UNL1       -0.0835
      2 CL          5.5096    0.7381    0.0000 Cl      1  UNL1       -0.0829
      3 O           2.0000   -2.6577    0.0000 O.2     1  UNL1       -0.2732
      4 N           3.5984   -2.0984    0.0000 N.am    1  UNL1       -0.2723
      5 N           2.6235   -0.0740    0.0000 N.2     1  UNL1       -0.2733
      6 C           4.3802   -0.4749    0.0000 C.ar    1  UNL1        0.0233
      7 C           4.3802   -1.4749    0.0000 C.ar    1  UNL1        0.0452
      8 C           3.5984    0.1486    0.0000 C.2     1  UNL1        0.0764
      9 C           2.1896   -0.9749    0.0000 C.3     1  UNL1        0.1169
     10 C           3.8209    1.1235    0.0000 C.ar    1  UNL1        0.0189
     11 C           2.6235   -1.8759    0.0000 C.2     1  UNL1        0.2410
     12 C           5.2742    0.0597    0.0000 C.ar    1  UNL1       -0.0324
     13 C           5.2742   -2.0096    0.0000 C.ar    1  UNL1       -0.0383
     14 C           3.8209   -3.0734    0.0000 C.3     1  UNL1        0.0084
     15 C           6.1803   -0.4541    0.0000 C.ar    1  UNL1        0.0417
     16 C           6.1803   -1.4957    0.0000 C.ar    1  UNL1       -0.0416
     17 C           4.7765    1.4182    0.0000 C.ar    1  UNL1        0.0501
     18 C           3.0879    1.8037    0.0000 C.ar    1  UNL1       -0.0512
     19 C           4.9990    2.3932    0.0000 C.ar    1  UNL1       -0.0427
     20 C           3.3104    2.7786    0.0000 C.ar    1  UNL1       -0.0611
     21 C           4.2660    3.0734    0.0000 C.ar    1  UNL1       -0.0603
     22 H           1.7049   -0.5884    0.0000 H       1  UNL1        0.0605
     23 H           1.7049   -1.3615    0.0000 H       1  UNL1        0.0605
     24 H           5.2670    0.6797    0.0000 H       1  UNL1        0.0639
     25 H           5.2670   -2.6296    0.0000 H       1  UNL1        0.0637
     26 H           3.2165   -3.2113    0.0000 H       1  UNL1        0.0433
     27 H           3.9589   -3.6778    0.0000 H       1  UNL1        0.0433
     28 H           4.4254   -2.9354    0.0000 H       1  UNL1        0.0433
     29 H           6.7160   -1.8078    0.0000 H       1  UNL1        0.0633
     30 H           2.4954    1.6209    0.0000 H       1  UNL1        0.0625
     31 H           5.5915    2.5759    0.0000 H       1  UNL1        0.0632
     32 H           2.8559    3.2003    0.0000 H       1  UNL1        0.0618
     33 H           4.4039    3.6778    0.0000 H       1  UNL1        0.0618
@<TRIPOS>BOND
     1     1    15    1
     2     2    17    1
     3     3    11    2
     4     4     7    1
     5     4    11   am
     6     4    14    1
     7     5     8    2
     8     5     9    1
     9     6     7   ar
    10     6     8    1
    11     6    12   ar
    12     7    13   ar
    13     8    10    1
    14     9    11    1
    15     9    22    1
    16     9    23    1
    17    10    17   ar
    18    10    18   ar
    19    12    15   ar
    20    12    24    1
    21    13    16   ar
    22    13    25    1
    23    14    26    1
    24    14    27    1
    25    14    28    1
    26    15    16   ar
    27    16    29    1
    28    17    19   ar
    29    18    20   ar
    30    18    30    1
    31    19    21   ar
    32    19    31    1
    33    20    21   ar
    34    20    32    1
    35    21    33    1
