@<TRIPOS>MOLECULE
IMPHY000962
 85 88 0 0 0
SMALL
GASTEIGER

@<TRIPOS>ATOM
      1 O          10.4586   -0.7906    0.0000 O.3     1  UNL1       -0.3914
      2 O           5.3307    0.2094    0.0000 O.2     1  UNL1       -0.2968
      3 O          10.1362    0.6540    0.0000 O.3     1  UNL1       -0.3810
      4 O           2.5519   -1.2513    0.0000 O.3     1  UNL1       -0.3892
      5 O           2.5357   -3.3429    0.0000 O.3     1  UNL1       -0.3884
      6 O           8.8285    2.6595    0.0000 O.2     1  UNL1       -0.2944
      7 O          12.7425    3.4844    0.0000 O.3     1  UNL1       -0.3891
      8 C           7.9288   -1.2906    0.0000 C.3     1  UNL1       -0.0195
      9 C           7.9288   -0.2906    0.0000 C.3     1  UNL1       -0.0115
     10 C           7.0628   -1.7906    0.0000 C.3     1  UNL1       -0.0190
     11 C           6.1968   -1.2906    0.0000 C.3     1  UNL1        0.0364
     12 C           8.8750    0.0142    0.0000 C.3     1  UNL1        0.0268
     13 C           8.8750   -1.5953    0.0000 C.3     1  UNL1       -0.0202
     14 C           7.0628    0.2094    0.0000 C.3     1  UNL1        0.0127
     15 C           9.4586   -0.7906    0.0000 C.3     1  UNL1        0.0621
     16 C           5.2868   -1.7974    0.0000 C.3     1  UNL1       -0.0045
     17 C           6.1968   -0.2906    0.0000 C.2     1  UNL1        0.1406
     18 C           7.0789   -2.8321    0.0000 C.3     1  UNL1       -0.0302
     19 C           7.9288   -2.2906    0.0000 C.3     1  UNL1       -0.0587
     20 C           7.9288    0.7094    0.0000 C.3     1  UNL1       -0.0582
     21 C           9.1857    0.9647    0.0000 C.3     1  UNL1        0.1264
     22 C           5.2787   -2.8390    0.0000 C.2     1  UNL1       -0.0612
     23 C           5.3307   -0.7906    0.0000 C.3     1  UNL1       -0.0520
     24 C           4.3599   -1.2333    0.0000 C.3     1  UNL1       -0.0170
     25 C           6.1808   -3.3598    0.0000 C.2     1  UNL1       -0.0836
     26 C           4.3433   -3.3887    0.0000 C.3     1  UNL1        0.0147
     27 C           3.4120   -1.7613    0.0000 C.3     1  UNL1        0.0824
     28 C           3.4037   -2.8462    0.0000 C.3     1  UNL1        0.0898
     29 C           8.2352    1.2754    0.0000 C.3     1  UNL1       -0.0287
     30 C           9.4964    1.9152    0.0000 C.2     1  UNL1        0.1648
     31 C           3.8467   -4.2567    0.0000 C.3     1  UNL1       -0.0536
     32 C           4.8466   -4.2528    0.0000 C.3     1  UNL1       -0.0536
     33 C          10.4749    2.1214    0.0000 C.3     1  UNL1        0.0113
     34 C          10.7855    3.0720    0.0000 C.3     1  UNL1       -0.0178
     35 C          11.7640    3.2782    0.0000 C.3     1  UNL1        0.0609
     36 C          11.5578    4.2567    0.0000 C.3     1  UNL1       -0.0363
     37 C          11.9703    2.2997    0.0000 C.3     1  UNL1       -0.0363
     38 H           7.8022   -2.2099    0.0000 H       1  UNL1        0.0319
     39 H           9.7148    0.1461    0.0000 H       1  UNL1        0.0363
     40 H           8.6240   -2.1622    0.0000 H       1  UNL1        0.0296
     41 H           9.4124   -1.9045    0.0000 H       1  UNL1        0.0296
     42 H           7.4613    0.6844    0.0000 H       1  UNL1        0.0347
     43 H           6.6643    0.6844    0.0000 H       1  UNL1        0.0347
     44 H           9.7404   -1.3429    0.0000 H       1  UNL1        0.0597
     45 H           6.0179   -2.2309    0.0000 H       1  UNL1        0.0356
     46 H           7.2969   -3.4125    0.0000 H       1  UNL1        0.0311
     47 H           7.6880   -2.7166    0.0000 H       1  UNL1        0.0311
     48 H           7.3088   -2.2906    0.0000 H       1  UNL1        0.0235
     49 H           7.9288   -2.9106    0.0000 H       1  UNL1        0.0235
     50 H           8.5488   -2.2906    0.0000 H       1  UNL1        0.0235
     51 H           8.5488    0.7094    0.0000 H       1  UNL1        0.0235
     52 H           7.9288    1.3294    0.0000 H       1  UNL1        0.0235
     53 H           7.3088    0.7094    0.0000 H       1  UNL1        0.0235
     54 H           5.6407   -0.2536    0.0000 H       1  UNL1        0.0239
     55 H           4.7938   -0.4806    0.0000 H       1  UNL1        0.0239
     56 H           5.0207   -1.3275    0.0000 H       1  UNL1        0.0239
     57 H           4.7681   -0.7667    0.0000 H       1  UNL1        0.0297
     58 H           3.9700   -0.7513    0.0000 H       1  UNL1        0.0297
     59 H           6.1832   -3.9798    0.0000 H       1  UNL1        0.0572
     60 H           2.8722   -2.0661    0.0000 H       1  UNL1        0.0619
     61 H           3.4025   -3.4662    0.0000 H       1  UNL1        0.0628
     62 H          10.7687   -1.3275    0.0000 H       1  UNL1        0.2098
     63 H           8.4278    1.8647    0.0000 H       1  UNL1        0.0262
     64 H           7.6459    1.4680    0.0000 H       1  UNL1        0.0262
     65 H           8.0426    0.6860    0.0000 H       1  UNL1        0.0262
     66 H           3.3085   -3.9488    0.0000 H       1  UNL1        0.0239
     67 H           3.5387   -4.7948    0.0000 H       1  UNL1        0.0239
     68 H           4.3848   -4.5646    0.0000 H       1  UNL1        0.0239
     69 H           4.3109   -4.5649    0.0000 H       1  UNL1        0.0239
     70 H           5.1587   -4.7886    0.0000 H       1  UNL1        0.0239
     71 H           5.3824   -3.9408    0.0000 H       1  UNL1        0.0239
     72 H          10.5977    1.0681    0.0000 H       1  UNL1        0.2107
     73 H          10.4954    1.5018    0.0000 H       1  UNL1        0.0343
     74 H          11.0887    2.0341    0.0000 H       1  UNL1        0.0343
     75 H           2.5590   -0.6313    0.0000 H       1  UNL1        0.2099
     76 H           2.0000   -3.0308    0.0000 H       1  UNL1        0.2099
     77 H          10.7650    3.6916    0.0000 H       1  UNL1        0.0297
     78 H          10.1717    3.1593    0.0000 H       1  UNL1        0.0297
     79 H          12.1645    4.3845    0.0000 H       1  UNL1        0.0257
     80 H          11.4300    4.8633    0.0000 H       1  UNL1        0.0257
     81 H          10.9511    4.1288    0.0000 H       1  UNL1        0.0257
     82 H          11.3636    2.1718    0.0000 H       1  UNL1        0.0257
     83 H          12.0981    1.6930    0.0000 H       1  UNL1        0.0257
     84 H          12.5769    2.4275    0.0000 H       1  UNL1        0.0257
     85 H          12.9352    4.0737    0.0000 H       1  UNL1        0.2101
@<TRIPOS>BOND
     1    15     1    1
     2     1    62    1
     3     2    17    2
     4    21     3    1
     5     3    72    1
     6    27     4    1
     7     4    75    1
     8    28     5    1
     9     5    76    1
    10     6    30    2
    11     7    35    1
    12     7    85    1
    13     8     9    1
    14     8    10    1
    15     8    13    1
    16     8    19    1
    17     9    12    1
    18     9    14    1
    19     9    20    1
    20    10    11    1
    21    10    18    1
    22    10    38    1
    23    11    16    1
    24    11    17    1
    25    11    23    1
    26    12    15    1
    27    12    21    1
    28    12    39    1
    29    13    15    1
    30    13    40    1
    31    13    41    1
    32    14    17    1
    33    14    42    1
    34    14    43    1
    35    15    44    1
    36    16    22    1
    37    16    24    1
    38    16    45    1
    39    18    25    1
    40    18    46    1
    41    18    47    1
    42    19    48    1
    43    19    49    1
    44    19    50    1
    45    20    51    1
    46    20    52    1
    47    20    53    1
    48    21    29    1
    49    21    30    1
    50    22    25    2
    51    22    26    1
    52    23    54    1
    53    23    55    1
    54    23    56    1
    55    24    27    1
    56    24    57    1
    57    24    58    1
    58    25    59    1
    59    26    28    1
    60    26    31    1
    61    26    32    1
    62    27    28    1
    63    27    60    1
    64    28    61    1
    65    29    63    1
    66    29    64    1
    67    29    65    1
    68    30    33    1
    69    31    66    1
    70    31    67    1
    71    31    68    1
    72    32    69    1
    73    32    70    1
    74    32    71    1
    75    33    34    1
    76    33    73    1
    77    33    74    1
    78    34    35    1
    79    34    77    1
    80    34    78    1
    81    35    36    1
    82    35    37    1
    83    36    79    1
    84    36    80    1
    85    36    81    1
    86    37    82    1
    87    37    83    1
    88    37    84    1
