@<TRIPOS>MOLECULE
IMPHY007255
 51 55 0 0 0
SMALL
GASTEIGER

@<TRIPOS>ATOM
      1 O           4.7340   -0.6444    0.0000 O.3     1  UNL1       -0.4833
      2 O           5.6521    1.9040    0.0000 O.3     1  UNL1       -0.4879
      3 O           3.2118   -3.7242    0.0000 O.3     1  UNL1       -0.4838
      4 O           2.1360    0.8556    0.0000 O.2     1  UNL1       -0.2912
      5 O           2.0116    3.9925    0.0000 O.3     1  UNL1       -0.4914
      6 O           3.8149    5.0523    0.0000 O.3     1  UNL1       -0.4913
      7 C           3.8680    0.8556    0.0000 C.3     1  UNL1        0.0908
      8 C           4.7340    0.3556    0.0000 C.3     1  UNL1        0.1478
      9 C           3.8680   -1.1444    0.0000 C.ar    1  UNL1        0.1383
     10 C           3.8520    1.8971    0.0000 C.ar    1  UNL1        0.0122
     11 C           3.0020    0.3556    0.0000 C.2     1  UNL1        0.1778
     12 C           5.6440    0.8624    0.0000 C.3     1  UNL1        0.1273
     13 C           3.8841   -2.1859    0.0000 C.ar    1  UNL1        0.0404
     14 C           3.0020   -0.6444    0.0000 C.ar    1  UNL1        0.0603
     15 C           4.6571   -2.8748    0.0000 C.3     1  UNL1        0.0204
     16 C           4.2424   -3.8236    0.0000 C.3     1  UNL1        0.1249
     17 C           2.9860   -2.7137    0.0000 C.ar    1  UNL1        0.1282
     18 C           4.7500    2.4248    0.0000 C.ar    1  UNL1        0.1283
     19 C           2.0920   -1.1513    0.0000 C.ar    1  UNL1       -0.0442
     20 C           2.9000    2.4177    0.0000 C.ar    1  UNL1       -0.0088
     21 C           2.0840   -2.1929    0.0000 C.ar    1  UNL1       -0.0187
     22 C           4.7491   -4.6858    0.0000 C.2     1  UNL1       -0.0395
     23 C           4.7584    3.5098    0.0000 C.ar    1  UNL1        0.0257
     24 C           2.8833    3.5026    0.0000 C.ar    1  UNL1        0.1620
     25 C           3.8187    4.0523    0.0000 C.ar    1  UNL1        0.1650
     26 C           4.2558   -5.5556    0.0000 C.3     1  UNL1       -0.0406
     27 C           5.7491   -4.6781    0.0000 C.2     1  UNL1       -0.0962
     28 C           2.0000    4.9925    0.0000 C.3     1  UNL1        0.0790
     29 C           4.6790    5.5556    0.0000 C.3     1  UNL1        0.0790
     30 H           3.1286    1.2749    0.0000 H       1  UNL1        0.0468
     31 H           5.4669   -0.0751    0.0000 H       1  UNL1        0.0778
     32 H           5.8486    0.2771    0.0000 H       1  UNL1        0.0734
     33 H           6.2557    0.9638    0.0000 H       1  UNL1        0.0734
     34 H           5.1960   -3.1815    0.0000 H       1  UNL1        0.0355
     35 H           5.0187   -2.3712    0.0000 H       1  UNL1        0.0355
     36 H           3.9090   -4.3464    0.0000 H       1  UNL1        0.0784
     37 H           1.5587   -0.8351    0.0000 H       1  UNL1        0.0627
     38 H           2.3692    2.0974    0.0000 H       1  UNL1        0.0659
     39 H           1.5458   -2.5008    0.0000 H       1  UNL1        0.0654
     40 H           5.2965    3.8177    0.0000 H       1  UNL1        0.0692
     41 H           3.7165   -5.2498    0.0000 H       1  UNL1        0.0275
     42 H           3.9499   -6.0950    0.0000 H       1  UNL1        0.0275
     43 H           4.7951   -5.8615    0.0000 H       1  UNL1        0.0275
     44 H           6.0632   -5.2126    0.0000 H       1  UNL1        0.0535
     45 H           6.0549   -4.1388    0.0000 H       1  UNL1        0.0535
     46 H           2.6200    4.9996    0.0000 H       1  UNL1        0.0660
     47 H           1.9928    5.6124    0.0000 H       1  UNL1        0.0660
     48 H           1.3800    4.9853    0.0000 H       1  UNL1        0.0660
     49 H           4.9910    5.0199    0.0000 H       1  UNL1        0.0660
     50 H           5.2147    5.8677    0.0000 H       1  UNL1        0.0660
     51 H           4.3669    6.0914    0.0000 H       1  UNL1        0.0660
@<TRIPOS>BOND
     1     1     8    1
     2     1     9    1
     3     2    12    1
     4     2    18    1
     5     3    16    1
     6     3    17    1
     7     4    11    2
     8     5    24    1
     9     5    28    1
    10     6    25    1
    11     6    29    1
    12     7     8    1
    13     7    10    1
    14     7    11    1
    15     7    30    1
    16     8    12    1
    17     8    31    1
    18     9    13   ar
    19     9    14   ar
    20    10    18   ar
    21    10    20   ar
    22    11    14    1
    23    12    32    1
    24    12    33    1
    25    13    15    1
    26    13    17   ar
    27    14    19   ar
    28    15    16    1
    29    15    34    1
    30    15    35    1
    31    16    22    1
    32    16    36    1
    33    17    21   ar
    34    18    23   ar
    35    19    21   ar
    36    19    37    1
    37    20    24   ar
    38    20    38    1
    39    21    39    1
    40    22    26    1
    41    22    27    2
    42    23    25   ar
    43    23    40    1
    44    24    25   ar
    45    26    41    1
    46    26    42    1
    47    26    43    1
    48    27    44    1
    49    27    45    1
    50    28    46    1
    51    28    47    1
    52    28    48    1
    53    29    49    1
    54    29    50    1
    55    29    51    1
