@<TRIPOS>MOLECULE
IMPHY011006
 28 27 0 0 0
SMALL
GASTEIGER

@<TRIPOS>ATOM
      1 O          10.3312    0.2500    0.0000 O.3     1  UNL1       -0.3950
      2 O           2.5369   -0.2500    0.0000 O.3     1  UNL1       -0.3950
      3 C           6.0010   -0.2500    0.0000 C.3     1  UNL1       -0.0530
      4 C           6.8671    0.2500    0.0000 C.3     1  UNL1       -0.0530
      5 C           5.1350    0.2500    0.0000 C.3     1  UNL1       -0.0510
      6 C           7.7331   -0.2500    0.0000 C.3     1  UNL1       -0.0510
      7 C           4.2690   -0.2500    0.0000 C.3     1  UNL1       -0.0297
      8 C           8.5991    0.2500    0.0000 C.3     1  UNL1       -0.0297
      9 C           3.4030    0.2500    0.0000 C.3     1  UNL1        0.0442
     10 C           9.4651   -0.2500    0.0000 C.3     1  UNL1        0.0442
     11 H           7.2656    0.7249    0.0000 H       1  UNL1        0.0265
     12 H           6.4685    0.7249    0.0000 H       1  UNL1        0.0265
     13 H           5.6025   -0.7249    0.0000 H       1  UNL1        0.0265
     14 H           6.3996   -0.7249    0.0000 H       1  UNL1        0.0265
     15 H           5.5335    0.7249    0.0000 H       1  UNL1        0.0266
     16 H           4.7365    0.7249    0.0000 H       1  UNL1        0.0266
     17 H           7.3346   -0.7249    0.0000 H       1  UNL1        0.0266
     18 H           8.1316   -0.7249    0.0000 H       1  UNL1        0.0266
     19 H           3.8705   -0.7249    0.0000 H       1  UNL1        0.0287
     20 H           4.6675   -0.7249    0.0000 H       1  UNL1        0.0287
     21 H           8.9976    0.7249    0.0000 H       1  UNL1        0.0287
     22 H           8.2006    0.7249    0.0000 H       1  UNL1        0.0287
     23 H           9.0666   -0.7249    0.0000 H       1  UNL1        0.0557
     24 H           9.8637   -0.7249    0.0000 H       1  UNL1        0.0557
     25 H           3.8015    0.7249    0.0000 H       1  UNL1        0.0557
     26 H           3.0044    0.7249    0.0000 H       1  UNL1        0.0557
     27 H          10.8681   -0.0600    0.0000 H       1  UNL1        0.2094
     28 H           2.0000    0.0600    0.0000 H       1  UNL1        0.2094
@<TRIPOS>BOND
     1     1    10    1
     2     1    27    1
     3     2     9    1
     4     2    28    1
     5     3     4    1
     6     3     5    1
     7     3    13    1
     8     3    14    1
     9     4     6    1
    10     4    11    1
    11     4    12    1
    12     5     7    1
    13     5    15    1
    14     5    16    1
    15     6     8    1
    16     6    17    1
    17     6    18    1
    18     7     9    1
    19     7    19    1
    20     7    20    1
    21     8    10    1
    22     8    21    1
    23     8    22    1
    24     9    25    1
    25     9    26    1
    26    10    23    1
    27    10    24    1
