@<TRIPOS>MOLECULE
IMPHY014638
 64 68 0 0 0
SMALL
GASTEIGER

@<TRIPOS>ATOM
      1 O           7.9288   -2.0254    0.0000 O.3     1  UNL1       -0.3877
      2 O           2.5357   -3.0778    0.0000 O.3     1  UNL1       -0.3918
      3 O           9.1885    2.8479    0.0000 O.3     1  UNL1       -0.4571
      4 O           4.4400    0.9743    0.0000 O.3     1  UNL1       -0.4806
      5 O           3.5625   -0.5189    0.0000 O.2     1  UNL1       -0.2510
      6 O          10.9491    3.1236    0.0000 O.2     1  UNL1       -0.2456
      7 C           7.9288   -1.0254    0.0000 C.3     1  UNL1        0.0751
      8 C           7.0628   -1.5254    0.0000 C.3     1  UNL1       -0.0082
      9 C           6.1968   -1.0254    0.0000 C.3     1  UNL1       -0.0292
     10 C           7.9288   -0.0254    0.0000 C.3     1  UNL1        0.0036
     11 C           5.2868   -1.5323    0.0000 C.3     1  UNL1       -0.0131
     12 C           5.2787   -2.5739    0.0000 C.3     1  UNL1       -0.0323
     13 C           6.1968   -0.0254    0.0000 C.3     1  UNL1       -0.0487
     14 C           7.0628    0.4746    0.0000 C.3     1  UNL1       -0.0442
     15 C           8.8750    0.2793    0.0000 C.3     1  UNL1       -0.0081
     16 C           7.0789   -2.5669    0.0000 C.3     1  UNL1       -0.0470
     17 C           8.8750   -1.3302    0.0000 C.3     1  UNL1       -0.0226
     18 C           6.1808   -3.0947    0.0000 C.3     1  UNL1       -0.0493
     19 C           9.4586   -0.5254    0.0000 C.3     1  UNL1       -0.0432
     20 C           4.3599   -0.9682    0.0000 C.3     1  UNL1       -0.0440
     21 C           4.3433   -3.1236    0.0000 C.3     1  UNL1       -0.0235
     22 C           5.2945   -0.5323    0.0000 C.3     1  UNL1        0.0509
     23 C           7.9288    0.9746    0.0000 C.3     1  UNL1       -0.0564
     24 C           3.4120   -1.4961    0.0000 C.3     1  UNL1       -0.0263
     25 C           3.4037   -2.5811    0.0000 C.3     1  UNL1        0.0555
     26 C           9.1857    1.2298    0.0000 C.2     1  UNL1       -0.0222
     27 C           4.4323   -0.0256    0.0000 C.2     1  UNL1        0.3052
     28 C           8.5993    2.0399    0.0000 C.3     1  UNL1        0.1147
     29 C          10.1373    1.5372    0.0000 C.2     1  UNL1        0.0252
     30 C          10.1390    2.5372    0.0000 C.2     1  UNL1        0.3323
     31 H           7.8022   -1.9447    0.0000 H       1  UNL1        0.0331
     32 H           6.9329   -0.6004    0.0000 H       1  UNL1        0.0310
     33 H           5.2820   -3.4239    0.0000 H       1  UNL1        0.0307
     34 H           5.9847    0.5572    0.0000 H       1  UNL1        0.0268
     35 H           5.5862   -0.1331    0.0000 H       1  UNL1        0.0268
     36 H           7.4613    0.9495    0.0000 H       1  UNL1        0.0272
     37 H           6.6643    0.9495    0.0000 H       1  UNL1        0.0272
     38 H           9.4875    0.3755    0.0000 H       1  UNL1        0.0353
     39 H           7.2969   -3.1473    0.0000 H       1  UNL1        0.0269
     40 H           7.6880   -2.4514    0.0000 H       1  UNL1        0.0269
     41 H           8.6240   -1.8971    0.0000 H       1  UNL1        0.0293
     42 H           9.4124   -1.6394    0.0000 H       1  UNL1        0.0293
     43 H           5.7835   -3.5706    0.0000 H       1  UNL1        0.0268
     44 H           6.5818   -3.5676    0.0000 H       1  UNL1        0.0268
     45 H           9.9195   -0.9401    0.0000 H       1  UNL1        0.0272
     46 H           9.9195   -0.1107    0.0000 H       1  UNL1        0.0272
     47 H           4.7681   -0.5015    0.0000 H       1  UNL1        0.0272
     48 H           3.9700   -0.4861    0.0000 H       1  UNL1        0.0272
     49 H           3.9460   -3.5996    0.0000 H       1  UNL1        0.0293
     50 H           4.7443   -3.5965    0.0000 H       1  UNL1        0.0293
     51 H           5.9042   -0.6447    0.0000 H       1  UNL1        0.0383
     52 H           5.5110    0.0487    0.0000 H       1  UNL1        0.0383
     53 H           8.5488    0.9746    0.0000 H       1  UNL1        0.0236
     54 H           7.9288    1.5946    0.0000 H       1  UNL1        0.0236
     55 H           7.3088    0.9746    0.0000 H       1  UNL1        0.0236
     56 H           3.2075   -0.9108    0.0000 H       1  UNL1        0.0290
     57 H           2.8004   -1.5975    0.0000 H       1  UNL1        0.0290
     58 H           2.8686   -2.2680    0.0000 H       1  UNL1        0.0593
     59 H           8.4658   -2.3354    0.0000 H       1  UNL1        0.2102
     60 H           8.1393    2.4555    0.0000 H       1  UNL1        0.0746
     61 H           8.1378    1.6258    0.0000 H       1  UNL1        0.0746
     62 H          10.6383    1.1719    0.0000 H       1  UNL1        0.0689
     63 H           2.0000   -2.7657    0.0000 H       1  UNL1        0.2098
     64 H           3.9055    1.2885    0.0000 H       1  UNL1        0.2951
@<TRIPOS>BOND
     1     7     1    1
     2     1    59    1
     3    25     2    1
     4     2    63    1
     5     3    28    1
     6     3    30    1
     7     4    27    1
     8     4    64    1
     9     5    27    2
    10     6    30    2
    11     7     8    1
    12     7    10    1
    13     7    17    1
    14     8     9    1
    15     8    16    1
    16     8    31    1
    17     9    11    1
    18     9    13    1
    19     9    32    1
    20    10    14    1
    21    10    15    1
    22    10    23    1
    23    11    12    1
    24    11    20    1
    25    11    22    1
    26    12    18    1
    27    12    21    1
    28    12    33    1
    29    13    14    1
    30    13    34    1
    31    13    35    1
    32    14    36    1
    33    14    37    1
    34    15    19    1
    35    15    26    1
    36    15    38    1
    37    16    18    1
    38    16    39    1
    39    16    40    1
    40    17    19    1
    41    17    41    1
    42    17    42    1
    43    18    43    1
    44    18    44    1
    45    19    45    1
    46    19    46    1
    47    20    24    1
    48    20    47    1
    49    20    48    1
    50    21    25    1
    51    21    49    1
    52    21    50    1
    53    22    27    1
    54    22    51    1
    55    22    52    1
    56    23    53    1
    57    23    54    1
    58    23    55    1
    59    24    25    1
    60    24    56    1
    61    24    57    1
    62    25    58    1
    63    26    28    1
    64    26    29    2
    65    28    60    1
    66    28    61    1
    67    29    30    1
    68    29    62    1
