@<TRIPOS>MOLECULE
IMPHY012875
 47 50 0 0 0
SMALL
GASTEIGER

@<TRIPOS>ATOM
      1 O           7.2762   -2.1794    0.0000 O.3     1  UNL1       -0.3887
      2 O           9.0343    0.8930    0.0000 O.2     1  UNL1       -0.4966
      3 O           9.0501   -1.1552    0.0000 O.3     1  UNL1       -0.3815
      4 O           4.6497   -0.6447    0.0000 O.3     1  UNL1       -0.5031
      5 O           2.8680    0.3658    0.0000 O.3     1  UNL1       -0.4914
      6 N           6.8422    1.8808    0.0000 N.3     1  UNL1       -0.3091
      7 C           6.3981    0.3899    0.0000 C.3     1  UNL1        0.0290
      8 C           7.2641    0.8899    0.0000 C.2     1  UNL1       -0.0017
      9 C           7.2641    1.8899    0.0000 C.3     1  UNL1        0.0372
     10 C           6.3820   -0.6516    0.0000 C.3     1  UNL1       -0.0103
     11 C           6.1950    0.7598    0.0000 C.3     1  UNL1       -0.0266
     12 C           5.5320    0.8899    0.0000 C.ar    1  UNL1        0.0114
     13 C           6.3981    2.3899    0.0000 C.3     1  UNL1       -0.0078
     14 C           7.2800   -1.1794    0.0000 C.3     1  UNL1        0.0892
     15 C           6.1114    1.5554    0.0000 C.3     1  UNL1       -0.0025
     16 C           8.1741    0.3831    0.0000 C.2     1  UNL1        0.1297
     17 C           5.5320    1.8899    0.0000 C.ar    1  UNL1       -0.0379
     18 C           8.1821   -0.6585    0.0000 C.3     1  UNL1        0.1377
     19 C           4.6381    0.3552    0.0000 C.ar    1  UNL1        0.1628
     20 C           4.6381    2.4246    0.0000 C.ar    1  UNL1       -0.0545
     21 C           3.7320    0.8691    0.0000 C.ar    1  UNL1        0.1616
     22 C           3.7320    1.9107    0.0000 C.ar    1  UNL1       -0.0160
     23 C           9.9060    0.4031    0.0000 C.3     1  UNL1        0.0785
     24 C           2.0000    0.8624    0.0000 C.3     1  UNL1        0.0790
     25 H           7.6891    2.6260    0.0000 H       1  UNL1        0.0511
     26 H           5.7729   -0.5361    0.0000 H       1  UNL1        0.0303
     27 H           6.1640   -1.2320    0.0000 H       1  UNL1        0.0303
     28 H           5.6002    0.9350    0.0000 H       1  UNL1        0.0289
     29 H           6.7867    0.9451    0.0000 H       1  UNL1        0.0289
     30 H           6.7966    2.8648    0.0000 H       1  UNL1        0.0332
     31 H           5.9995    2.8648    0.0000 H       1  UNL1        0.0332
     32 H           6.7413   -1.4862    0.0000 H       1  UNL1        0.0624
     33 H           5.9198    2.1451    0.0000 H       1  UNL1        0.0425
     34 H           5.5049    1.4265    0.0000 H       1  UNL1        0.0425
     35 H           8.7173   -0.3454    0.0000 H       1  UNL1        0.0701
     36 H           6.9711    2.4873    0.0000 H       1  UNL1        0.1225
     37 H           4.6453    3.0445    0.0000 H       1  UNL1        0.0622
     38 H           6.7381   -2.4873    0.0000 H       1  UNL1        0.2099
     39 H           9.0525   -1.7752    0.0000 H       1  UNL1        0.2105
     40 H           3.1963    2.2228    0.0000 H       1  UNL1        0.0655
     41 H           4.1164   -0.9609    0.0000 H       1  UNL1        0.2923
     42 H           9.6023   -0.1374    0.0000 H       1  UNL1        0.0660
     43 H          10.4465    0.0993    0.0000 H       1  UNL1        0.0660
     44 H          10.2098    0.9436    0.0000 H       1  UNL1        0.0660
     45 H           2.3079    1.4005    0.0000 H       1  UNL1        0.0660
     46 H           1.4619    1.1703    0.0000 H       1  UNL1        0.0660
     47 H           1.6921    0.3243    0.0000 H       1  UNL1        0.0660
@<TRIPOS>BOND
     1    14     1    1
     2     1    38    1
     3     2    16    1
     4     2    23    1
     5    18     3    1
     6     3    39    1
     7     4    19    1
     8     4    41    1
     9     5    21    1
    10     5    24    1
    11     6     9    1
    12     6    15    1
    13     6    36    1
    14     7     8    1
    15     7    10    1
    16     7    11    1
    17     7    12    1
    18     8     9    1
    19     8    16    2
    20     9    13    1
    21     9    25    1
    22    10    14    1
    23    10    26    1
    24    10    27    1
    25    11    15    1
    26    11    28    1
    27    11    29    1
    28    12    17   ar
    29    12    19   ar
    30    13    17    1
    31    13    30    1
    32    13    31    1
    33    14    18    1
    34    14    32    1
    35    15    33    1
    36    15    34    1
    37    16    18    1
    38    17    20   ar
    39    18    35    1
    40    19    21   ar
    41    20    22   ar
    42    20    37    1
    43    21    22   ar
    44    22    40    1
    45    23    42    1
    46    23    43    1
    47    23    44    1
    48    24    45    1
    49    24    46    1
    50    24    47    1
