@<TRIPOS>MOLECULE
IMPHY013957
 103 108 0 0 0
SMALL
GASTEIGER

@<TRIPOS>ATOM
      1 O           5.9998   -2.3338    0.0000 O.3     1  UNL1       -0.3423
      2 O           6.0159   -0.2422    0.0000 O.3     1  UNL1       -0.3892
      3 O           7.8141   -4.1117    0.0000 O.3     1  UNL1       -0.3944
      4 O          14.9249    0.7527    0.0000 O.3     1  UNL1       -0.4802
      5 O          14.0705   -0.7540    0.0000 O.2     1  UNL1       -0.2504
      6 O           5.1396   -0.8305    0.0000 O.3     1  UNL1       -0.3461
      7 O          14.6828    3.7781    0.0000 O.3     1  UNL1       -0.4675
      8 O          13.1729    4.6267    0.0000 O.2     1  UNL1       -0.2502
      9 O           4.2639   -3.3272    0.0000 O.3     1  UNL1       -0.3841
     10 O           2.5357   -2.3205    0.0000 O.3     1  UNL1       -0.3864
     11 O           2.5434   -0.3205    0.0000 O.3     1  UNL1       -0.3869
     12 C          10.5269   -0.7815    0.0000 C.3     1  UNL1       -0.0194
     13 C           8.7508   -0.7884    0.0000 C.3     1  UNL1       -0.0225
     14 C           9.6608   -0.2815    0.0000 C.3     1  UNL1       -0.0257
     15 C          11.3929   -0.2815    0.0000 C.3     1  UNL1       -0.0051
     16 C           8.7428   -1.8300    0.0000 C.3     1  UNL1       -0.0253
     17 C          10.5429   -1.8230    0.0000 C.3     1  UNL1       -0.0463
     18 C           7.8074   -2.3797    0.0000 C.3     1  UNL1        0.0231
     19 C           9.6449   -2.3508    0.0000 C.3     1  UNL1       -0.0485
     20 C          11.3929    0.7185    0.0000 C.2     1  UNL1       -0.0629
     21 C           7.8240   -0.2243    0.0000 C.3     1  UNL1       -0.0184
     22 C           9.6608    0.7185    0.0000 C.3     1  UNL1       -0.0306
     23 C          12.2868    1.2532    0.0000 C.3     1  UNL1       -0.0026
     24 C          12.2868   -0.8162    0.0000 C.3     1  UNL1       -0.0424
     25 C          13.1929    0.7393    0.0000 C.3     1  UNL1        0.0741
     26 C           6.8678   -1.8372    0.0000 C.3     1  UNL1        0.0953
     27 C          11.1697   -1.5476    0.0000 C.3     1  UNL1       -0.0585
     28 C           6.8761   -0.7522    0.0000 C.3     1  UNL1        0.0825
     29 C          13.1929   -0.3023    0.0000 C.3     1  UNL1       -0.0359
     30 C           8.7586    0.2116    0.0000 C.3     1  UNL1       -0.0589
     31 C          10.5269    1.2185    0.0000 C.2     1  UNL1       -0.0836
     32 C          11.7350   -1.2212    0.0000 C.3     1  UNL1       -0.0553
     33 C          12.2617    2.3379    0.0000 C.3     1  UNL1       -0.0299
     34 C          14.1367    1.2746    0.0000 C.3     1  UNL1       -0.0357
     35 C           7.3107   -3.2476    0.0000 C.3     1  UNL1        0.0523
     36 C           8.3107   -3.2438    0.0000 C.3     1  UNL1       -0.0547
     37 C          13.1929    2.8948    0.0000 C.3     1  UNL1        0.0656
     38 C          14.1367    2.3595    0.0000 C.3     1  UNL1       -0.0365
     39 C          14.0628    0.2460    0.0000 C.2     1  UNL1        0.3115
     40 C          12.6829    3.7550    0.0000 C.3     1  UNL1       -0.0494
     41 C          13.6829    3.7665    0.0000 C.2     1  UNL1        0.3128
     42 C           5.1357   -1.8305    0.0000 C.3     1  UNL1        0.1879
     43 C           4.2678   -2.3272    0.0000 C.3     1  UNL1        0.1341
     44 C           3.4037   -1.8238    0.0000 C.3     1  UNL1        0.1137
     45 C           4.2755   -0.3272    0.0000 C.3     1  UNL1        0.0792
     46 C           3.4075   -0.8238    0.0000 C.3     1  UNL1        0.1069
     47 C          15.1727    4.6498    0.0000 C.3     1  UNL1        0.0817
     48 H          10.3970    0.1435    0.0000 H       1  UNL1        0.0315
     49 H           8.7461   -2.6800    0.0000 H       1  UNL1        0.0313
     50 H          10.7610   -2.4034    0.0000 H       1  UNL1        0.0271
     51 H          11.1521   -1.7075    0.0000 H       1  UNL1        0.0271
     52 H           9.2476   -2.8267    0.0000 H       1  UNL1        0.0268
     53 H          10.0459   -2.8237    0.0000 H       1  UNL1        0.0268
     54 H           8.2322    0.2424    0.0000 H       1  UNL1        0.0296
     55 H           7.4341    0.2578    0.0000 H       1  UNL1        0.0296
     56 H           9.4488    1.3011    0.0000 H       1  UNL1        0.0310
     57 H           9.0503    0.6108    0.0000 H       1  UNL1        0.0310
     58 H          13.0163    1.6894    0.0000 H       1  UNL1        0.0357
     59 H          11.8822   -1.2860    0.0000 H       1  UNL1        0.0274
     60 H          12.6805   -1.2952    0.0000 H       1  UNL1        0.0274
     61 H           6.8666   -2.4572    0.0000 H       1  UNL1        0.0629
     62 H          10.6947   -1.9461    0.0000 H       1  UNL1        0.0235
     63 H          11.5682   -2.0225    0.0000 H       1  UNL1        0.0235
     64 H          11.6446   -1.1490    0.0000 H       1  UNL1        0.0235
     65 H           6.3362   -1.0570    0.0000 H       1  UNL1        0.0619
     66 H          13.4020   -0.8860    0.0000 H       1  UNL1        0.0276
     67 H          13.8038   -0.1962    0.0000 H       1  UNL1        0.0276
     68 H           9.3785    0.2068    0.0000 H       1  UNL1        0.0235
     69 H           8.7633    0.8316    0.0000 H       1  UNL1        0.0235
     70 H           8.1386    0.2164    0.0000 H       1  UNL1        0.0235
     71 H          10.5269    1.8385    0.0000 H       1  UNL1        0.0572
     72 H          11.1524   -1.4333    0.0000 H       1  UNL1        0.0238
     73 H          11.9471   -1.8038    0.0000 H       1  UNL1        0.0238
     74 H          12.3176   -1.0090    0.0000 H       1  UNL1        0.0238
     75 H          12.0393    2.9166    0.0000 H       1  UNL1        0.0282
     76 H          11.6535    2.2177    0.0000 H       1  UNL1        0.0282
     77 H          14.3457    0.6909    0.0000 H       1  UNL1        0.0276
     78 H          14.7475    1.3806    0.0000 H       1  UNL1        0.0276
     79 H           6.8342   -2.8509    0.0000 H       1  UNL1        0.0563
     80 H           6.8373   -3.6480    0.0000 H       1  UNL1        0.0563
     81 H           7.7750   -3.5558    0.0000 H       1  UNL1        0.0237
     82 H           8.6228   -3.7795    0.0000 H       1  UNL1        0.0237
     83 H           8.8465   -2.9317    0.0000 H       1  UNL1        0.0237
     84 H          14.7475    2.2534    0.0000 H       1  UNL1        0.0276
     85 H          14.3457    2.9432    0.0000 H       1  UNL1        0.0276
     86 H           6.0231    0.3777    0.0000 H       1  UNL1        0.2099
     87 H          13.2162    4.0712    0.0000 H       1  UNL1        0.0240
     88 H          12.3667    4.2883    0.0000 H       1  UNL1        0.0240
     89 H          12.1496    3.4388    0.0000 H       1  UNL1        0.0240
     90 H           5.1333   -2.4505    0.0000 H       1  UNL1        0.0937
     91 H           7.5061   -4.6498    0.0000 H       1  UNL1        0.2094
     92 H          15.4642    0.4468    0.0000 H       1  UNL1        0.2951
     93 H           3.7296   -2.6351    0.0000 H       1  UNL1        0.0671
     94 H           2.8680   -1.5118    0.0000 H       1  UNL1        0.0647
     95 H           4.6758    0.1462    0.0000 H       1  UNL1        0.0587
     96 H           3.8788    0.1493    0.0000 H       1  UNL1        0.0587
     97 H           3.4099   -0.2038    0.0000 H       1  UNL1        0.0643
     98 H           3.7258   -3.6351    0.0000 H       1  UNL1        0.2101
     99 H          15.7132    4.3461    0.0000 H       1  UNL1        0.0661
    100 H          15.4765    5.1903    0.0000 H       1  UNL1        0.0661
    101 H          14.6323    4.9536    0.0000 H       1  UNL1        0.0661
    102 H           2.0000   -2.0084    0.0000 H       1  UNL1        0.2100
    103 H           2.5458    0.2995    0.0000 H       1  UNL1        0.2100
@<TRIPOS>BOND
     1    26     1    1
     2    42     1    1
     3    28     2    1
     4     2    86    1
     5     3    35    1
     6     3    91    1
     7     4    39    1
     8     4    92    1
     9     5    39    2
    10     6    42    1
    11     6    45    1
    12     7    41    1
    13     7    47    1
    14     8    41    2
    15    43     9    1
    16     9    98    1
    17    44    10    1
    18    10   102    1
    19    46    11    1
    20    11   103    1
    21    12    14    1
    22    12    15    1
    23    12    17    1
    24    12    27    1
    25    13    14    1
    26    13    16    1
    27    13    21    1
    28    13    30    1
    29    14    22    1
    30    14    48    1
    31    15    20    1
    32    15    24    1
    33    15    32    1
    34    16    18    1
    35    16    19    1
    36    16    49    1
    37    17    19    1
    38    17    50    1
    39    17    51    1
    40    18    26    1
    41    18    35    1
    42    18    36    1
    43    19    52    1
    44    19    53    1
    45    20    23    1
    46    20    31    2
    47    21    28    1
    48    21    54    1
    49    21    55    1
    50    22    31    1
    51    22    56    1
    52    22    57    1
    53    23    25    1
    54    23    33    1
    55    23    58    1
    56    24    29    1
    57    24    59    1
    58    24    60    1
    59    25    29    1
    60    25    34    1
    61    25    39    1
    62    26    28    1
    63    26    61    1
    64    27    62    1
    65    27    63    1
    66    27    64    1
    67    28    65    1
    68    29    66    1
    69    29    67    1
    70    30    68    1
    71    30    69    1
    72    30    70    1
    73    31    71    1
    74    32    72    1
    75    32    73    1
    76    32    74    1
    77    33    37    1
    78    33    75    1
    79    33    76    1
    80    34    38    1
    81    34    77    1
    82    34    78    1
    83    35    79    1
    84    35    80    1
    85    36    81    1
    86    36    82    1
    87    36    83    1
    88    37    38    1
    89    37    40    1
    90    37    41    1
    91    38    84    1
    92    38    85    1
    93    40    87    1
    94    40    88    1
    95    40    89    1
    96    42    43    1
    97    42    90    1
    98    43    44    1
    99    43    93    1
   100    44    46    1
   101    44    94    1
   102    45    46    1
   103    45    95    1
   104    45    96    1
   105    46    97    1
   106    47    99    1
   107    47   100    1
   108    47   101    1
