@<TRIPOS>MOLECULE
IMPHY006729
 53 58 0 0 0
SMALL
GASTEIGER

@<TRIPOS>ATOM
      1 O           6.3423    1.3620    0.0000 O.3     1  UNL1       -0.3191
      2 O           4.6512   -1.1070    0.0000 O.3     1  UNL1       -0.4586
      3 O           8.1324    0.7803    0.0000 O.3     1  UNL1       -0.4325
      4 O           3.2568   -0.1608    0.0000 O.3     1  UNL1       -0.4580
      5 O           4.8612    1.7314    0.0000 O.3     1  UNL1       -0.3806
      6 O           7.4641   -1.7273    0.0000 O.3     1  UNL1       -0.3798
      7 O           3.7551    0.5464    0.0000 O.2     1  UNL1       -0.2474
      8 O           9.3893   -0.4698    0.0000 O.2     1  UNL1       -0.2478
      9 O           2.0000    1.0894    0.0000 O.2     1  UNL1       -0.2504
     10 C           5.8475   -0.1608    0.0000 C.3     1  UNL1        0.0681
     11 C           6.8371   -0.1608    0.0000 C.3     1  UNL1        0.0851
     12 C           5.5418    0.7803    0.0000 C.3     1  UNL1        0.2116
     13 C           5.5418   -1.1019    0.0000 C.3     1  UNL1        0.1133
     14 C           7.1429   -1.1019    0.0000 C.3     1  UNL1       -0.0177
     15 C           4.5522    0.7803    0.0000 C.3     1  UNL1        0.1551
     16 C           5.0470   -0.7424    0.0000 C.3     1  UNL1        0.0004
     17 C           7.1429    0.7803    0.0000 C.3     1  UNL1        0.2155
     18 C           6.3423   -1.6836    0.0000 C.3     1  UNL1       -0.0109
     19 C           4.2464   -0.1608    0.0000 C.3     1  UNL1        0.1364
     20 C           7.6377   -0.7424    0.0000 C.3     1  UNL1        0.1639
     21 C           4.6512    0.1024    0.0000 C.2     1  UNL1        0.3436
     22 C           8.0939   -1.4109    0.0000 C.3     1  UNL1       -0.0339
     23 C           3.7516    1.3620    0.0000 C.3     1  UNL1        0.0891
     24 C           8.4382   -0.1608    0.0000 C.2     1  UNL1        0.3390
     25 C           2.9511    0.7803    0.0000 C.2     1  UNL1        0.3133
     26 C           9.0450   -1.7200    0.0000 C.3     1  UNL1       -0.0598
     27 C           7.7849   -2.3620    0.0000 C.3     1  UNL1       -0.0598
     28 C           8.9420   -0.8810    0.0000 C.3     1  UNL1       -0.0598
     29 C           3.7516    2.3620    0.0000 C.3     1  UNL1       -0.0494
     30 H           5.2814   -1.9111    0.0000 H       1  UNL1        0.0741
     31 H           7.2399   -1.7143    0.0000 H       1  UNL1        0.0315
     32 H           4.6321   -1.2032    0.0000 H       1  UNL1        0.0310
     33 H           5.4618   -1.2032    0.0000 H       1  UNL1        0.0310
     34 H           7.4056    1.5887    0.0000 H       1  UNL1        0.1064
     35 H           5.9274   -2.1443    0.0000 H       1  UNL1        0.0304
     36 H           6.7572   -2.1443    0.0000 H       1  UNL1        0.0304
     37 H           3.9837   -0.9692    0.0000 H       1  UNL1        0.0764
     38 H           8.1635   -1.0710    0.0000 H       1  UNL1        0.0718
     39 H           4.3040    1.6435    0.0000 H       1  UNL1        0.0441
     40 H           5.4677    1.8603    0.0000 H       1  UNL1        0.2105
     41 H           8.8534   -2.3096    0.0000 H       1  UNL1        0.0235
     42 H           9.6346   -1.9116    0.0000 H       1  UNL1        0.0235
     43 H           9.2366   -1.1303    0.0000 H       1  UNL1        0.0235
     44 H           7.1952   -2.1704    0.0000 H       1  UNL1        0.0235
     45 H           7.5933   -2.9516    0.0000 H       1  UNL1        0.0235
     46 H           8.3746   -2.5536    0.0000 H       1  UNL1        0.0235
     47 H           9.2705   -1.4068    0.0000 H       1  UNL1        0.0235
     48 H           9.4678   -0.5525    0.0000 H       1  UNL1        0.0235
     49 H           8.6134   -0.3552    0.0000 H       1  UNL1        0.0235
     50 H           4.3716    2.3620    0.0000 H       1  UNL1        0.0238
     51 H           3.7516    2.9820    0.0000 H       1  UNL1        0.0238
     52 H           3.1316    2.3620    0.0000 H       1  UNL1        0.0238
     53 H           7.0655   -2.2022    0.0000 H       1  UNL1        0.2105
@<TRIPOS>BOND
     1     1    12    1
     2     1    17    1
     3     2    13    1
     4     2    21    1
     5     3    17    1
     6     3    24    1
     7     4    19    1
     8     4    25    1
     9    15     5    1
    10     5    40    1
    11    20     6    1
    12     6    53    1
    13     7    21    2
    14     8    24    2
    15     9    25    2
    16    10    11    1
    17    10    12    1
    18    10    13    1
    19    10    16    1
    20    11    14    1
    21    11    17    1
    22    11    20    1
    23    12    15    1
    24    12    21    1
    25    13    18    1
    26    13    30    1
    27    14    18    1
    28    14    22    1
    29    14    31    1
    30    15    19    1
    31    15    23    1
    32    16    19    1
    33    16    32    1
    34    16    33    1
    35    17    34    1
    36    18    35    1
    37    18    36    1
    38    19    37    1
    39    20    24    1
    40    20    38    1
    41    22    26    1
    42    22    27    1
    43    22    28    1
    44    23    25    1
    45    23    29    1
    46    23    39    1
    47    26    41    1
    48    26    42    1
    49    26    43    1
    50    27    44    1
    51    27    45    1
    52    27    46    1
    53    28    47    1
    54    28    48    1
    55    28    49    1
    56    29    50    1
    57    29    51    1
    58    29    52    1
