@<TRIPOS>MOLECULE
IMPHY014145
 50 54 0 0 0
SMALL
GASTEIGER

@<TRIPOS>ATOM
      1 O           4.9898   -1.2378    0.0000 O.3     1  UNL1       -0.3590
      2 O           5.6469    2.2344    0.0000 O.3     1  UNL1       -0.4224
      3 O           4.1581    3.2035    0.0000 O.2     1  UNL1       -0.2448
      4 O           2.6067    1.9678    0.0000 O.3     1  UNL1       -0.3902
      5 C           5.8561   -0.7374    0.0000 C.3     1  UNL1        0.1075
      6 C           7.6321   -0.7442    0.0000 C.3     1  UNL1       -0.0197
      7 C           6.7221   -0.2374    0.0000 C.3     1  UNL1        0.0184
      8 C           7.6401   -1.7858    0.0000 C.3     1  UNL1       -0.0298
      9 C           4.9900   -0.2374    0.0000 C.3     1  UNL1        0.1178
     10 C           5.8400   -1.7789    0.0000 C.3     1  UNL1       -0.0201
     11 C           8.5755   -2.3356    0.0000 C.3     1  UNL1       -0.0315
     12 C           6.7380   -2.3066    0.0000 C.3     1  UNL1       -0.0465
     13 C           8.5589   -0.1802    0.0000 C.3     1  UNL1       -0.0467
     14 C           9.5152   -1.7931    0.0000 C.3     1  UNL1       -0.0476
     15 C           6.7221    0.7626    0.0000 C.2     1  UNL1       -0.0347
     16 C           7.6244    0.2557    0.0000 C.3     1  UNL1       -0.0587
     17 C           9.5068   -0.7081    0.0000 C.3     1  UNL1       -0.0520
     18 C           4.9900    0.7626    0.0000 C.2     1  UNL1        0.0382
     19 C           5.8561    1.2626    0.0000 C.2     1  UNL1        0.1347
     20 C           9.0722   -3.2035    0.0000 C.3     1  UNL1       -0.0595
     21 C           8.0722   -3.1996    0.0000 C.3     1  UNL1       -0.0595
     22 C           4.2530    1.4297    0.0000 C.2     1  UNL1        0.0713
     23 C           4.6581    2.3375    0.0000 C.2     1  UNL1        0.3431
     24 C           3.2745    1.2235    0.0000 C.3     1  UNL1        0.0764
     25 H           7.4549    0.1933    0.0000 H       1  UNL1        0.0378
     26 H           7.6368   -2.6358    0.0000 H       1  UNL1        0.0311
     27 H           4.1400   -0.2373    0.0000 H       1  UNL1        0.0677
     28 H           5.2309   -1.6634    0.0000 H       1  UNL1        0.0294
     29 H           5.6220   -2.3593    0.0000 H       1  UNL1        0.0294
     30 H           6.3371   -2.7795    0.0000 H       1  UNL1        0.0269
     31 H           7.1354   -2.7826    0.0000 H       1  UNL1        0.0269
     32 H           8.9488    0.3019    0.0000 H       1  UNL1        0.0271
     33 H           8.1507    0.2865    0.0000 H       1  UNL1        0.0271
     34 H           9.7287   -2.3751    0.0000 H       1  UNL1        0.0271
     35 H          10.1252   -1.6823    0.0000 H       1  UNL1        0.0271
     36 H           7.2590    1.0726    0.0000 H       1  UNL1        0.0612
     37 H           8.2444    0.2605    0.0000 H       1  UNL1        0.0235
     38 H           7.6196    0.8757    0.0000 H       1  UNL1        0.0235
     39 H           7.0044    0.2510    0.0000 H       1  UNL1        0.0235
     40 H          10.1185   -0.8095    0.0000 H       1  UNL1        0.0266
     41 H           9.7114   -0.1228    0.0000 H       1  UNL1        0.0266
     42 H           8.5341   -3.5114    0.0000 H       1  UNL1        0.0235
     43 H           9.3801   -3.7416    0.0000 H       1  UNL1        0.0235
     44 H           9.6103   -2.8956    0.0000 H       1  UNL1        0.0235
     45 H           7.5365   -2.8876    0.0000 H       1  UNL1        0.0235
     46 H           7.7601   -3.7354    0.0000 H       1  UNL1        0.0235
     47 H           8.6080   -3.5117    0.0000 H       1  UNL1        0.0235
     48 H           2.7482    0.8958    0.0000 H       1  UNL1        0.0610
     49 H           3.5058    0.6482    0.0000 H       1  UNL1        0.0610
     50 H           2.0000    1.8399    0.0000 H       1  UNL1        0.2099
@<TRIPOS>BOND
     1     5     1    1
     2     1     9    1
     3     2    19    1
     4     2    23    1
     5     3    23    2
     6     4    24    1
     7     4    50    1
     8     5     7    1
     9     5     9    1
    10     5    10    1
    11     6     7    1
    12     6     8    1
    13     6    13    1
    14     6    16    1
    15     7    15    1
    16     7    25    1
    17     8    11    1
    18     8    12    1
    19     8    26    1
    20     9    18    1
    21     9    27    1
    22    10    12    1
    23    10    28    1
    24    10    29    1
    25    11    14    1
    26    11    20    1
    27    11    21    1
    28    12    30    1
    29    12    31    1
    30    13    17    1
    31    13    32    1
    32    13    33    1
    33    14    17    1
    34    14    34    1
    35    14    35    1
    36    15    19    2
    37    15    36    1
    38    16    37    1
    39    16    38    1
    40    16    39    1
    41    17    40    1
    42    17    41    1
    43    18    19    1
    44    18    22    2
    45    20    42    1
    46    20    43    1
    47    20    44    1
    48    21    45    1
    49    21    46    1
    50    21    47    1
    51    22    23    1
    52    22    24    1
    53    24    48    1
    54    24    49    1
