@<TRIPOS>MOLECULE
IMPHY000318
 48 49 0 0 0
SMALL
GASTEIGER

@<TRIPOS>ATOM
      1 O           6.3301    3.8100    0.0000 O.3     1  UNL1       -0.4912
      2 O           8.0622    2.8100    0.0000 O.3     1  UNL1       -0.5033
      3 O           8.9282   -3.6900    0.0000 O.3     1  UNL1       -0.5066
      4 O           5.4641   -3.6900    0.0000 O.3     1  UNL1       -0.5066
      5 C           6.3301   -0.1900    0.0000 C.3     1  UNL1       -0.0236
      6 C           6.3301    0.8100    0.0000 C.ar    1  UNL1       -0.0431
      7 C           7.1962   -0.6900    0.0000 C.3     1  UNL1       -0.0235
      8 C           5.4641    2.3100    0.0000 C.ar    1  UNL1        0.0019
      9 C           5.4641    1.3100    0.0000 C.ar    1  UNL1       -0.0514
     10 C           7.1962   -1.6900    0.0000 C.ar    1  UNL1       -0.0402
     11 C           4.5981    2.8100    0.0000 C.3     1  UNL1       -0.0057
     12 C           7.1962    1.3100    0.0000 C.ar    1  UNL1       -0.0133
     13 C           6.3301    2.8100    0.0000 C.ar    1  UNL1        0.1647
     14 C           7.1962    2.3100    0.0000 C.ar    1  UNL1        0.1590
     15 C           3.7320    2.3100    0.0000 C.2     1  UNL1       -0.0809
     16 C           6.3301   -2.1900    0.0000 C.ar    1  UNL1       -0.0168
     17 C           8.0622   -2.1900    0.0000 C.ar    1  UNL1       -0.0168
     18 C           2.8660    2.8100    0.0000 C.2     1  UNL1       -0.0793
     19 C           8.0622   -3.1900    0.0000 C.ar    1  UNL1        0.1206
     20 C           6.3301   -3.1900    0.0000 C.ar    1  UNL1        0.1206
     21 C           7.1962   -3.6900    0.0000 C.ar    1  UNL1        0.0213
     22 C           2.0000    2.3100    0.0000 C.3     1  UNL1       -0.0440
     23 C           2.8660    3.8100    0.0000 C.3     1  UNL1       -0.0440
     24 C           7.1962    4.3100    0.0000 C.3     1  UNL1        0.0790
     25 H           5.7196   -0.0823    0.0000 H       1  UNL1        0.0316
     26 H           6.1181   -0.7726    0.0000 H       1  UNL1        0.0316
     27 H           7.8067   -0.7977    0.0000 H       1  UNL1        0.0316
     28 H           7.4082   -0.1074    0.0000 H       1  UNL1        0.0316
     29 H           4.9272    1.0000    0.0000 H       1  UNL1        0.0624
     30 H           4.9966    3.2850    0.0000 H       1  UNL1        0.0357
     31 H           4.1996    3.2850    0.0000 H       1  UNL1        0.0357
     32 H           7.7331    1.0000    0.0000 H       1  UNL1        0.0658
     33 H           3.7320    1.6900    0.0000 H       1  UNL1        0.0575
     34 H           5.7932   -1.8800    0.0000 H       1  UNL1        0.0657
     35 H           8.5991   -1.8800    0.0000 H       1  UNL1        0.0657
     36 H           7.1962   -4.3100    0.0000 H       1  UNL1        0.0691
     37 H           8.5991    2.5000    0.0000 H       1  UNL1        0.2923
     38 H           3.4860    3.8100    0.0000 H       1  UNL1        0.0274
     39 H           2.8660    4.4300    0.0000 H       1  UNL1        0.0274
     40 H           2.2460    3.8100    0.0000 H       1  UNL1        0.0274
     41 H           1.6900    2.8469    0.0000 H       1  UNL1        0.0274
     42 H           1.4631    2.0000    0.0000 H       1  UNL1        0.0274
     43 H           2.3100    1.7731    0.0000 H       1  UNL1        0.0274
     44 H           7.5062    3.7731    0.0000 H       1  UNL1        0.0660
     45 H           7.7331    4.6200    0.0000 H       1  UNL1        0.0660
     46 H           6.8862    4.8469    0.0000 H       1  UNL1        0.0660
     47 H           8.9282   -4.3100    0.0000 H       1  UNL1        0.2921
     48 H           5.4641   -4.3100    0.0000 H       1  UNL1        0.2921
@<TRIPOS>BOND
     1     1    13    1
     2     1    24    1
     3     2    14    1
     4     2    37    1
     5     3    19    1
     6     3    47    1
     7     4    20    1
     8     4    48    1
     9     5     6    1
    10     5     7    1
    11     5    25    1
    12     5    26    1
    13     6     9   ar
    14     6    12   ar
    15     7    10    1
    16     7    27    1
    17     7    28    1
    18     8     9   ar
    19     8    11    1
    20     8    13   ar
    21     9    29    1
    22    10    16   ar
    23    10    17   ar
    24    11    15    1
    25    11    30    1
    26    11    31    1
    27    12    14   ar
    28    12    32    1
    29    13    14   ar
    30    15    18    2
    31    15    33    1
    32    16    20   ar
    33    16    34    1
    34    17    19   ar
    35    17    35    1
    36    18    22    1
    37    18    23    1
    38    19    21   ar
    39    20    21   ar
    40    21    36    1
    41    22    41    1
    42    22    42    1
    43    22    43    1
    44    23    38    1
    45    23    39    1
    46    23    40    1
    47    24    44    1
    48    24    45    1
    49    24    46    1
