@<TRIPOS>MOLECULE
IMPHY008195
 71 73 0 0 0
SMALL
GASTEIGER

@<TRIPOS>ATOM
      1 O           6.8671   -1.0950    0.0000 O.3     1  UNL1       -0.3096
      2 O           5.1350   -1.0950    0.0000 O.3     1  UNL1       -0.3404
      3 O           6.0010    0.4050    0.0000 O.2     1  UNL1       -0.4702
      4 O           6.8671   -3.0950    0.0000 O.3     1  UNL1       -0.3841
      5 O           5.1350   -4.0950    0.0000 O.3     1  UNL1       -0.3864
      6 O           3.4030   -3.0950    0.0000 O.3     1  UNL1       -0.3865
      7 O           2.5369   -1.5950    0.0000 O.3     1  UNL1       -0.3924
      8 O          10.3312    1.9050    0.0000 O.3     1  UNL1       -0.4643
      9 O           6.0010    3.4050    0.0000 O.3     1  UNL1       -0.4646
     10 O           9.4651    0.4050    0.0000 O.2     1  UNL1       -0.2508
     11 O           7.7331    3.4050    0.0000 O.2     1  UNL1       -0.2452
     12 O          15.5273   -0.0950    0.0000 O.3     1  UNL1       -0.5068
     13 C           7.7331    0.4050    0.0000 C.3     1  UNL1        0.0290
     14 C           7.7331    1.4050    0.0000 C.3     1  UNL1        0.0123
     15 C           6.8671   -0.0950    0.0000 C.3     1  UNL1        0.2068
     16 C           6.0010   -1.5950    0.0000 C.3     1  UNL1        0.1918
     17 C           6.0010   -2.5950    0.0000 C.3     1  UNL1        0.1342
     18 C           5.1350   -3.0950    0.0000 C.3     1  UNL1        0.1141
     19 C           4.2690   -2.5950    0.0000 C.3     1  UNL1        0.1119
     20 C           8.5991   -0.0950    0.0000 C.3     1  UNL1       -0.0468
     21 C           4.2690   -1.5950    0.0000 C.3     1  UNL1        0.1130
     22 C           6.8671    1.9050    0.0000 C.2     1  UNL1        0.0748
     23 C           8.5991    1.9050    0.0000 C.3     1  UNL1        0.0525
     24 C           6.0010    1.4050    0.0000 C.2     1  UNL1        0.0981
     25 C           3.4030   -1.0950    0.0000 C.3     1  UNL1        0.0730
     26 C           8.5991   -1.0950    0.0000 C.3     1  UNL1       -0.0648
     27 C           9.4651    1.4050    0.0000 C.2     1  UNL1        0.3077
     28 C           6.8671    2.9050    0.0000 C.2     1  UNL1        0.3381
     29 C          11.1972    1.4050    0.0000 C.3     1  UNL1        0.0964
     30 C          12.0632    1.9050    0.0000 C.3     1  UNL1        0.0067
     31 C           6.0010    4.4050    0.0000 C.3     1  UNL1        0.0820
     32 C          12.9292    1.4050    0.0000 C.ar    1  UNL1       -0.0439
     33 C          12.9292    0.4050    0.0000 C.ar    1  UNL1       -0.0550
     34 C          13.7953    1.9050    0.0000 C.ar    1  UNL1       -0.0550
     35 C          13.7953   -0.0950    0.0000 C.ar    1  UNL1       -0.0199
     36 C          14.6613    1.4050    0.0000 C.ar    1  UNL1       -0.0199
     37 C          14.6613    0.4050    0.0000 C.ar    1  UNL1        0.1169
     38 H           8.2700    0.7150    0.0000 H       1  UNL1        0.0367
     39 H           7.7331    2.0250    0.0000 H       1  UNL1        0.0362
     40 H           7.4040   -0.4050    0.0000 H       1  UNL1        0.1059
     41 H           6.0010   -0.9750    0.0000 H       1  UNL1        0.0939
     42 H           6.0010   -3.2150    0.0000 H       1  UNL1        0.0671
     43 H           4.5981   -3.4050    0.0000 H       1  UNL1        0.0648
     44 H           3.7320   -2.2850    0.0000 H       1  UNL1        0.0647
     45 H           9.2097   -0.2027    0.0000 H       1  UNL1        0.0267
     46 H           8.8112    0.4876    0.0000 H       1  UNL1        0.0267
     47 H           4.2690   -0.9750    0.0000 H       1  UNL1        0.0647
     48 H           8.9976    2.3800    0.0000 H       1  UNL1        0.0384
     49 H           8.2006    2.3800    0.0000 H       1  UNL1        0.0384
     50 H           5.4641    1.7150    0.0000 H       1  UNL1        0.1029
     51 H           3.8015   -0.6201    0.0000 H       1  UNL1        0.0584
     52 H           3.0044   -0.6201    0.0000 H       1  UNL1        0.0584
     53 H           7.9791   -1.0950    0.0000 H       1  UNL1        0.0230
     54 H           8.5991   -1.7150    0.0000 H       1  UNL1        0.0230
     55 H           9.2191   -1.0950    0.0000 H       1  UNL1        0.0230
     56 H           6.8671   -3.7150    0.0000 H       1  UNL1        0.2101
     57 H           4.5981   -4.4050    0.0000 H       1  UNL1        0.2100
     58 H           3.4030   -3.7150    0.0000 H       1  UNL1        0.2100
     59 H           2.0000   -1.2850    0.0000 H       1  UNL1        0.2095
     60 H          10.7987    0.9301    0.0000 H       1  UNL1        0.0701
     61 H          11.5957    0.9301    0.0000 H       1  UNL1        0.0701
     62 H          12.4617    2.3800    0.0000 H       1  UNL1        0.0346
     63 H          11.6647    2.3800    0.0000 H       1  UNL1        0.0346
     64 H           6.6210    4.4050    0.0000 H       1  UNL1        0.0661
     65 H           6.0010    5.0250    0.0000 H       1  UNL1        0.0661
     66 H           5.3810    4.4050    0.0000 H       1  UNL1        0.0661
     67 H          12.3923    0.0950    0.0000 H       1  UNL1        0.0621
     68 H          13.7953    2.5250    0.0000 H       1  UNL1        0.0621
     69 H          13.7953   -0.7150    0.0000 H       1  UNL1        0.0654
     70 H          15.1982    1.7150    0.0000 H       1  UNL1        0.0654
     71 H          16.0643    0.2150    0.0000 H       1  UNL1        0.2921
@<TRIPOS>BOND
     1    15     1    1
     2    16     1    1
     3     2    16    1
     4     2    21    1
     5     3    15    1
     6     3    24    1
     7    17     4    1
     8     4    56    1
     9    18     5    1
    10     5    57    1
    11    19     6    1
    12     6    58    1
    13     7    25    1
    14     7    59    1
    15     8    27    1
    16     8    29    1
    17     9    28    1
    18     9    31    1
    19    10    27    2
    20    11    28    2
    21    12    37    1
    22    12    71    1
    23    13    14    1
    24    13    15    1
    25    13    20    1
    26    13    38    1
    27    14    22    1
    28    14    23    1
    29    14    39    1
    30    15    40    1
    31    16    17    1
    32    16    41    1
    33    17    18    1
    34    17    42    1
    35    18    19    1
    36    18    43    1
    37    19    21    1
    38    19    44    1
    39    20    26    1
    40    20    45    1
    41    20    46    1
    42    21    25    1
    43    21    47    1
    44    22    24    2
    45    22    28    1
    46    23    27    1
    47    23    48    1
    48    23    49    1
    49    24    50    1
    50    25    51    1
    51    25    52    1
    52    26    53    1
    53    26    54    1
    54    26    55    1
    55    29    30    1
    56    29    60    1
    57    29    61    1
    58    30    32    1
    59    30    62    1
    60    30    63    1
    61    31    64    1
    62    31    65    1
    63    31    66    1
    64    32    33   ar
    65    32    34   ar
    66    33    35   ar
    67    33    67    1
    68    34    36   ar
    69    34    68    1
    70    35    37   ar
    71    35    69    1
    72    36    37   ar
    73    36    70    1
