@<TRIPOS>MOLECULE
IMPHY000280
 95 101 0 0 0
SMALL
GASTEIGER

@<TRIPOS>ATOM
      1 O           6.3391   -1.2887    0.0000 O.3     1  UNL1       -0.4573
      2 O           7.8566   -2.4575    0.0000 O.3     1  UNL1       -0.3790
      3 O           9.6793    1.3043    0.0000 O.3     1  UNL1       -0.3791
      4 O           5.9629    1.0528    0.0000 O.3     1  UNL1       -0.4544
      5 O           7.5541    2.6162    0.0000 O.3     1  UNL1       -0.3823
      6 O           5.5616    1.7623    0.0000 O.3     1  UNL1       -0.3767
      7 O          10.5453   -2.9309    0.0000 O.3     1  UNL1       -0.3824
      8 O           4.6549   -0.8844    0.0000 O.2     1  UNL1       -0.2511
      9 O           4.9659   -0.3636    0.0000 O.2     1  UNL1       -0.2449
     10 O           1.7846    2.9349    0.0000 O.3     1  UNL1       -0.4951
     11 N          10.8746   -0.5247    0.0000 N.3     1  UNL1       -0.2979
     12 C           8.9280   -0.1295    0.0000 C.3     1  UNL1        0.0221
     13 C           8.9280   -0.9971    0.0000 C.3     1  UNL1        0.0043
     14 C           8.2497    0.4114    0.0000 C.3     1  UNL1       -0.0185
     15 C           9.9299   -0.2355    0.0000 C.3     1  UNL1        0.0279
     16 C           7.4038   -1.3450    0.0000 C.3     1  UNL1        0.0421
     17 C           7.4038    0.2184    0.0000 C.3     1  UNL1        0.0429
     18 C           7.0274   -0.5633    0.0000 C.3     1  UNL1        0.1291
     19 C           8.2497   -1.5380    0.0000 C.3     1  UNL1        0.0703
     20 C           9.6793   -1.4309    0.0000 C.3     1  UNL1        0.0127
     21 C           9.6793    0.3043    0.0000 C.3     1  UNL1        0.0660
     22 C           8.3274    1.2755    0.0000 C.3     1  UNL1       -0.0140
     23 C           7.5297    1.6165    0.0000 C.3     1  UNL1        0.1294
     24 C           6.9588    0.9631    0.0000 C.3     1  UNL1        0.1410
     25 C           6.3825   -0.2934    0.0000 C.3     1  UNL1        0.0171
     26 C          10.8746   -1.2766    0.0000 C.3     1  UNL1        0.0073
     27 C          10.4306   -0.9971    0.0000 C.3     1  UNL1       -0.0414
     28 C           6.3825    1.1912    0.0000 C.3     1  UNL1        0.0941
     29 C          10.4306   -0.1295    0.0000 C.3     1  UNL1       -0.0254
     30 C           9.6793   -2.4309    0.0000 C.3     1  UNL1        0.0544
     31 C          11.6786    0.0699    0.0000 C.3     1  UNL1       -0.0036
     32 C           5.3803   -1.5727    0.0000 C.2     1  UNL1        0.3045
     33 C           8.4564   -3.2577    0.0000 C.3     1  UNL1        0.0368
     34 C          12.5956   -0.3290    0.0000 C.3     1  UNL1       -0.0523
     35 C          10.5453    1.8043    0.0000 C.3     1  UNL1        0.0368
     36 C           5.0555    0.6324    0.0000 C.2     1  UNL1        0.3395
     37 C           5.6458    2.7587    0.0000 C.3     1  UNL1        0.0369
     38 C           5.1468   -2.5451    0.0000 C.3     1  UNL1        0.0333
     39 C          10.5453   -3.9309    0.0000 C.3     1  UNL1        0.0365
     40 C           4.2378    1.2080    0.0000 C.ar    1  UNL1        0.0592
     41 C           3.3304    0.7877    0.0000 C.ar    1  UNL1       -0.0443
     42 C           4.3274    2.2040    0.0000 C.ar    1  UNL1       -0.0443
     43 C           2.5127    1.3633    0.0000 C.ar    1  UNL1       -0.0192
     44 C           3.5097    2.7796    0.0000 C.ar    1  UNL1       -0.0192
     45 C           2.6024    2.3593    0.0000 C.ar    1  UNL1        0.1201
     46 C           1.8743    3.9309    0.0000 C.3     1  UNL1        0.0788
     47 H           8.9915   -1.8447    0.0000 H       1  UNL1        0.0339
     48 H           9.0312    0.7455    0.0000 H       1  UNL1        0.0314
     49 H          10.3744    0.4890    0.0000 H       1  UNL1        0.0474
     50 H           6.8739   -2.0095    0.0000 H       1  UNL1        0.0380
     51 H           6.5547    0.1802    0.0000 H       1  UNL1        0.0379
     52 H           8.4501   -2.1247    0.0000 H       1  UNL1        0.0603
     53 H           9.1424    0.6143    0.0000 H       1  UNL1        0.0602
     54 H           8.5102    1.8680    0.0000 H       1  UNL1        0.0298
     55 H           8.9357    1.1557    0.0000 H       1  UNL1        0.0298
     56 H           6.7280    1.5386    0.0000 H       1  UNL1        0.0768
     57 H           6.2206   -0.8918    0.0000 H       1  UNL1        0.0330
     58 H           5.7679   -0.2117    0.0000 H       1  UNL1        0.0330
     59 H          11.4941   -1.2501    0.0000 H       1  UNL1        0.0433
     60 H          10.9276   -1.8944    0.0000 H       1  UNL1        0.0433
     61 H          11.0412   -0.8894    0.0000 H       1  UNL1        0.0273
     62 H          10.6427   -1.5797    0.0000 H       1  UNL1        0.0273
     63 H           6.4607    1.8062    0.0000 H       1  UNL1        0.0627
     64 H          10.6427    0.4531    0.0000 H       1  UNL1        0.0290
     65 H          11.0412   -0.2372    0.0000 H       1  UNL1        0.0290
     66 H           9.4672   -3.0135    0.0000 H       1  UNL1        0.0566
     67 H           9.0687   -2.3232    0.0000 H       1  UNL1        0.0566
     68 H          11.2289    0.4968    0.0000 H       1  UNL1        0.0424
     69 H          12.0209    0.5869    0.0000 H       1  UNL1        0.0424
     70 H           7.0249    2.9392    0.0000 H       1  UNL1        0.2104
     71 H           8.9525   -2.8858    0.0000 H       1  UNL1        0.0524
     72 H           8.8283   -3.7538    0.0000 H       1  UNL1        0.0524
     73 H           7.9604   -3.6296    0.0000 H       1  UNL1        0.0524
     74 H          12.8429    0.2396    0.0000 H       1  UNL1        0.0242
     75 H          13.1641   -0.5763    0.0000 H       1  UNL1        0.0242
     76 H          12.3483   -0.8975    0.0000 H       1  UNL1        0.0242
     77 H          10.2353    2.3412    0.0000 H       1  UNL1        0.0524
     78 H          11.0823    2.1143    0.0000 H       1  UNL1        0.0524
     79 H          10.8553    1.2674    0.0000 H       1  UNL1        0.0524
     80 H           5.0280    2.8109    0.0000 H       1  UNL1        0.0524
     81 H           5.6980    3.3765    0.0000 H       1  UNL1        0.0524
     82 H           6.2636    2.7065    0.0000 H       1  UNL1        0.0524
     83 H           5.7497   -2.6898    0.0000 H       1  UNL1        0.0342
     84 H           5.0021   -3.1480    0.0000 H       1  UNL1        0.0342
     85 H           4.5440   -2.4004    0.0000 H       1  UNL1        0.0342
     86 H          11.1653   -3.9309    0.0000 H       1  UNL1        0.0523
     87 H          10.5453   -4.5509    0.0000 H       1  UNL1        0.0523
     88 H           9.9253   -3.9309    0.0000 H       1  UNL1        0.0523
     89 H           3.2749    0.1702    0.0000 H       1  UNL1        0.0627
     90 H           4.8900    2.4646    0.0000 H       1  UNL1        0.0627
     91 H           1.9502    1.1027    0.0000 H       1  UNL1        0.0654
     92 H           3.5653    3.3971    0.0000 H       1  UNL1        0.0654
     93 H           1.2568    3.9864    0.0000 H       1  UNL1        0.0660
     94 H           1.9298    4.5484    0.0000 H       1  UNL1        0.0660
     95 H           2.4918    3.8753    0.0000 H       1  UNL1        0.0660
@<TRIPOS>BOND
     1    18     1    1
     2     1    32    1
     3    19     2    1
     4     2    33    1
     5    21     3    1
     6     3    35    1
     7    24     4    1
     8     4    36    1
     9    23     5    1
    10     5    70    1
    11    28     6    1
    12     6    37    1
    13     7    30    1
    14     7    39    1
    15     8    32    2
    16     9    36    2
    17    10    45    1
    18    10    46    1
    19    11    15    1
    20    11    26    1
    21    11    31    1
    22    12    13    1
    23    12    14    1
    24    12    15    1
    25    12    21    1
    26    13    19    1
    27    13    20    1
    28    13    47    1
    29    14    17    1
    30    14    22    1
    31    14    48    1
    32    15    16    1
    33    15    49    1
    34    16    18    1
    35    16    19    1
    36    16    50    1
    37    17    18    1
    38    17    24    1
    39    17    51    1
    40    18    25    1
    41    19    52    1
    42    20    26    1
    43    20    27    1
    44    20    30    1
    45    21    29    1
    46    21    53    1
    47    22    23    1
    48    22    54    1
    49    22    55    1
    50    23    24    1
    51    23    28    1
    52    24    56    1
    53    25    28    1
    54    25    57    1
    55    25    58    1
    56    26    59    1
    57    26    60    1
    58    27    29    1
    59    27    61    1
    60    27    62    1
    61    28    63    1
    62    29    64    1
    63    29    65    1
    64    30    66    1
    65    30    67    1
    66    31    34    1
    67    31    68    1
    68    31    69    1
    69    32    38    1
    70    33    71    1
    71    33    72    1
    72    33    73    1
    73    34    74    1
    74    34    75    1
    75    34    76    1
    76    35    77    1
    77    35    78    1
    78    35    79    1
    79    36    40    1
    80    37    80    1
    81    37    81    1
    82    37    82    1
    83    38    83    1
    84    38    84    1
    85    38    85    1
    86    39    86    1
    87    39    87    1
    88    39    88    1
    89    40    41   ar
    90    40    42   ar
    91    41    43   ar
    92    41    89    1
    93    42    44   ar
    94    42    90    1
    95    43    45   ar
    96    43    91    1
    97    44    45   ar
    98    44    92    1
    99    46    93    1
   100    46    94    1
   101    46    95    1
