@<TRIPOS>MOLECULE
IMPHY013193
 35 37 0 0 0
SMALL
GASTEIGER

@<TRIPOS>ATOM
      1 O           3.7817   -2.0346    0.0000 O.3     1  UNL1       -0.5056
      2 O           5.5301   -2.0000    0.0000 O.2     1  UNL1       -0.2864
      3 O           5.5301    2.0000    0.0000 O.2     1  UNL1       -0.2865
      4 O           7.2785    2.0346    0.0000 O.3     1  UNL1       -0.5028
      5 O           9.0602    1.0241    0.0000 O.3     1  UNL1       -0.4913
      6 O           7.2785   -2.0346    0.0000 O.3     1  UNL1       -0.5059
      7 O           2.0000    1.0241    0.0000 O.3     1  UNL1       -0.5064
      8 C           4.6641   -0.5000    0.0000 C.ar    1  UNL1        0.0750
      9 C           4.6641    0.5000    0.0000 C.ar    1  UNL1        0.0402
     10 C           6.3961    0.5000    0.0000 C.ar    1  UNL1        0.0816
     11 C           6.3961   -0.5000    0.0000 C.ar    1  UNL1        0.0783
     12 C           5.5301   -1.0000    0.0000 C.2     1  UNL1        0.2016
     13 C           5.5301    1.0000    0.0000 C.2     1  UNL1        0.1985
     14 C           3.7702   -1.0347    0.0000 C.ar    1  UNL1        0.1347
     15 C           2.8641   -0.5208    0.0000 C.ar    1  UNL1        0.0330
     16 C           3.7702    1.0347    0.0000 C.ar    1  UNL1       -0.0082
     17 C           7.2901    1.0347    0.0000 C.ar    1  UNL1        0.1704
     18 C           7.2901   -1.0347    0.0000 C.ar    1  UNL1        0.1321
     19 C           2.8641    0.5208    0.0000 C.ar    1  UNL1        0.1239
     20 C           8.1962    0.5208    0.0000 C.ar    1  UNL1        0.1655
     21 C           8.1962   -0.5208    0.0000 C.ar    1  UNL1        0.0259
     22 C           2.0000   -1.0241    0.0000 C.3     1  UNL1       -0.0327
     23 C           9.9282    0.5275    0.0000 C.3     1  UNL1        0.0790
     24 H           3.7773    1.6546    0.0000 H       1  UNL1        0.0661
     25 H           8.7319   -0.8329    0.0000 H       1  UNL1        0.0692
     26 H           1.6879   -0.4884    0.0000 H       1  UNL1        0.0280
     27 H           1.4643   -1.3362    0.0000 H       1  UNL1        0.0280
     28 H           2.3121   -1.5599    0.0000 H       1  UNL1        0.0280
     29 H           3.2484   -2.3508    0.0000 H       1  UNL1        0.2922
     30 H           7.8118    2.3508    0.0000 H       1  UNL1        0.2923
     31 H           7.8118   -2.3508    0.0000 H       1  UNL1        0.2922
     32 H           2.0024    1.6442    0.0000 H       1  UNL1        0.2921
     33 H           9.6203   -0.0106    0.0000 H       1  UNL1        0.0660
     34 H          10.4663    0.2196    0.0000 H       1  UNL1        0.0660
     35 H          10.2361    1.0656    0.0000 H       1  UNL1        0.0660
@<TRIPOS>BOND
     1     1    14    1
     2     1    29    1
     3     2    12    2
     4     3    13    2
     5     4    17    1
     6     4    30    1
     7     5    20    1
     8     5    23    1
     9     6    18    1
    10     6    31    1
    11     7    19    1
    12     7    32    1
    13     8     9   ar
    14     8    12    1
    15     8    14   ar
    16     9    13    1
    17     9    16   ar
    18    10    11   ar
    19    10    13    1
    20    10    17   ar
    21    11    12    1
    22    11    18   ar
    23    14    15   ar
    24    15    19   ar
    25    15    22    1
    26    16    19   ar
    27    16    24    1
    28    17    20   ar
    29    18    21   ar
    30    20    21   ar
    31    21    25    1
    32    22    26    1
    33    22    27    1
    34    22    28    1
    35    23    33    1
    36    23    34    1
    37    23    35    1
