@<TRIPOS>MOLECULE
IMPHY006197
 62 64 0 0 0
SMALL
GASTEIGER

@<TRIPOS>ATOM
      1 O           7.7331    1.2500    0.0000 O.3     1  UNL1       -0.3312
      2 O           4.2690    0.2500    0.0000 O.3     1  UNL1       -0.3431
      3 O           6.0010    0.2500    0.0000 O.3     1  UNL1       -0.3461
      4 O           6.0010    3.2500    0.0000 O.3     1  UNL1       -0.3865
      5 O           7.7331    4.2500    0.0000 O.3     1  UNL1       -0.3864
      6 O           6.0010   -1.7500    0.0000 O.3     1  UNL1       -0.3841
      7 O           4.2690   -2.7500    0.0000 O.3     1  UNL1       -0.3864
      8 O           2.5369   -1.7500    0.0000 O.3     1  UNL1       -0.3866
      9 O           9.4651    3.2500    0.0000 O.3     1  UNL1       -0.3829
     10 O           9.4651    1.2500    0.0000 O.3     1  UNL1       -0.4292
     11 O           8.5991   -0.2500    0.0000 O.2     1  UNL1       -0.2455
     12 O          12.0632   -4.2500    0.0000 O.3     1  UNL1       -0.5033
     13 O          13.7953   -3.2500    0.0000 O.3     1  UNL1       -0.5033
     14 C           6.8671    1.7500    0.0000 C.3     1  UNL1        0.1144
     15 C           6.8671    2.7500    0.0000 C.3     1  UNL1        0.1120
     16 C           7.7331    3.2500    0.0000 C.3     1  UNL1        0.1152
     17 C           5.1350   -1.2500    0.0000 C.3     1  UNL1        0.1341
     18 C           4.2690   -1.7500    0.0000 C.3     1  UNL1        0.1140
     19 C           5.1350   -0.2500    0.0000 C.3     1  UNL1        0.1879
     20 C           3.4030   -1.2500    0.0000 C.3     1  UNL1        0.1095
     21 C           8.5991    2.7500    0.0000 C.3     1  UNL1        0.1455
     22 C           3.4030   -0.2500    0.0000 C.3     1  UNL1        0.0873
     23 C           6.0010    1.2500    0.0000 C.3     1  UNL1        0.0796
     24 C           8.5991    1.7500    0.0000 C.3     1  UNL1        0.2340
     25 C           2.5369    0.2500    0.0000 C.3     1  UNL1       -0.0361
     26 C           9.4651    0.2500    0.0000 C.2     1  UNL1        0.3342
     27 C          10.3312   -0.2500    0.0000 C.2     1  UNL1        0.0231
     28 C          10.3312   -1.2500    0.0000 C.2     1  UNL1       -0.0477
     29 C          11.1972   -1.7500    0.0000 C.ar    1  UNL1       -0.0211
     30 C          11.1972   -2.7500    0.0000 C.ar    1  UNL1       -0.0094
     31 C          12.0632   -1.2500    0.0000 C.ar    1  UNL1       -0.0509
     32 C          12.0632   -3.2500    0.0000 C.ar    1  UNL1        0.1588
     33 C          12.9292   -1.7500    0.0000 C.ar    1  UNL1       -0.0160
     34 C          12.9292   -2.7500    0.0000 C.ar    1  UNL1        0.1582
     35 H           6.8671    1.1300    0.0000 H       1  UNL1        0.0647
     36 H           6.3301    2.4400    0.0000 H       1  UNL1        0.0647
     37 H           7.1962    3.5600    0.0000 H       1  UNL1        0.0648
     38 H           5.1350   -1.8700    0.0000 H       1  UNL1        0.0671
     39 H           3.7320   -2.0600    0.0000 H       1  UNL1        0.0648
     40 H           5.1350    0.3700    0.0000 H       1  UNL1        0.0937
     41 H           2.8660   -0.9400    0.0000 H       1  UNL1        0.0646
     42 H           8.5991    3.3700    0.0000 H       1  UNL1        0.0683
     43 H           3.4030    0.3700    0.0000 H       1  UNL1        0.0621
     44 H           5.7890    1.8326    0.0000 H       1  UNL1        0.0587
     45 H           5.3905    1.1423    0.0000 H       1  UNL1        0.0587
     46 H           8.5991    1.1300    0.0000 H       1  UNL1        0.1085
     47 H           2.8469    0.7869    0.0000 H       1  UNL1        0.0255
     48 H           2.0000    0.5600    0.0000 H       1  UNL1        0.0255
     49 H           2.2269   -0.2869    0.0000 H       1  UNL1        0.0255
     50 H           6.0010    3.8700    0.0000 H       1  UNL1        0.2100
     51 H           8.2700    4.5600    0.0000 H       1  UNL1        0.2100
     52 H           6.5380   -1.4400    0.0000 H       1  UNL1        0.2101
     53 H           3.7320   -3.0600    0.0000 H       1  UNL1        0.2100
     54 H           2.0000   -1.4400    0.0000 H       1  UNL1        0.2100
     55 H          10.0021    2.9400    0.0000 H       1  UNL1        0.2102
     56 H          10.8681    0.0600    0.0000 H       1  UNL1        0.0689
     57 H           9.7942   -1.5600    0.0000 H       1  UNL1        0.0626
     58 H          10.6603   -3.0600    0.0000 H       1  UNL1        0.0661
     59 H          12.0632   -0.6300    0.0000 H       1  UNL1        0.0625
     60 H          13.4662   -1.4400    0.0000 H       1  UNL1        0.0655
     61 H          11.5263   -4.5600    0.0000 H       1  UNL1        0.2923
     62 H          14.3322   -2.9400    0.0000 H       1  UNL1        0.2923
@<TRIPOS>BOND
     1     1    14    1
     2     1    24    1
     3     2    19    1
     4     2    22    1
     5    19     3    1
     6     3    23    1
     7    15     4    1
     8     4    50    1
     9    16     5    1
    10     5    51    1
    11    17     6    1
    12     6    52    1
    13    18     7    1
    14     7    53    1
    15    20     8    1
    16     8    54    1
    17    21     9    1
    18     9    55    1
    19    24    10    1
    20    10    26    1
    21    11    26    2
    22    12    32    1
    23    12    61    1
    24    13    34    1
    25    13    62    1
    26    14    15    1
    27    14    23    1
    28    14    35    1
    29    15    16    1
    30    15    36    1
    31    16    21    1
    32    16    37    1
    33    17    18    1
    34    17    19    1
    35    17    38    1
    36    18    20    1
    37    18    39    1
    38    19    40    1
    39    20    22    1
    40    20    41    1
    41    21    24    1
    42    21    42    1
    43    22    25    1
    44    22    43    1
    45    23    44    1
    46    23    45    1
    47    24    46    1
    48    25    47    1
    49    25    48    1
    50    25    49    1
    51    26    27    1
    52    27    28    2
    53    27    56    1
    54    28    29    1
    55    28    57    1
    56    29    30   ar
    57    29    31   ar
    58    30    32   ar
    59    30    58    1
    60    31    33   ar
    61    31    59    1
    62    32    34   ar
    63    33    34   ar
    64    33    60    1
