@<TRIPOS>MOLECULE
IMPHY003433
 32 34 0 0 0
SMALL
GASTEIGER

@<TRIPOS>ATOM
      1 O           6.0290   -0.9259    0.0000 O.3     1  UNL1       -0.4792
      2 O           6.0174    2.1433    0.0000 O.2     1  UNL1       -0.2917
      3 O           4.2690    2.1087    0.0000 O.3     1  UNL1       -0.5058
      4 O           4.2690   -1.8913    0.0000 O.3     1  UNL1       -0.5009
      5 O           2.5369   -0.8913    0.0000 O.3     1  UNL1       -0.5031
      6 C           6.9350   -0.4121    0.0000 C.3     1  UNL1        0.1323
      7 C           6.9350    0.6296    0.0000 C.3     1  UNL1        0.0520
      8 C           5.1350    0.6087    0.0000 C.ar    1  UNL1        0.1043
      9 C           6.0290    1.1434    0.0000 C.2     1  UNL1        0.1741
     10 C           5.1350   -0.3913    0.0000 C.ar    1  UNL1        0.1802
     11 C           7.7991   -0.9154    0.0000 C.ar    1  UNL1       -0.0069
     12 C           4.2690    1.1087    0.0000 C.ar    1  UNL1        0.1346
     13 C           4.2690   -0.8913    0.0000 C.ar    1  UNL1        0.2018
     14 C           7.7953   -1.9154    0.0000 C.ar    1  UNL1       -0.0551
     15 C           8.6671   -0.4188    0.0000 C.ar    1  UNL1       -0.0551
     16 C           3.4030   -0.3913    0.0000 C.ar    1  UNL1        0.1655
     17 C           3.4030    0.6087    0.0000 C.ar    1  UNL1        0.0259
     18 C           8.6594   -2.4187    0.0000 C.ar    1  UNL1       -0.0614
     19 C           9.5312   -0.9221    0.0000 C.ar    1  UNL1       -0.0614
     20 C           9.5273   -1.9221    0.0000 C.ar    1  UNL1       -0.0617
     21 H           7.4726   -0.1031    0.0000 H       1  UNL1        0.0789
     22 H           7.5459    0.5235    0.0000 H       1  UNL1        0.0385
     23 H           7.1441    1.2132    0.0000 H       1  UNL1        0.0385
     24 H           7.2571   -2.2233    0.0000 H       1  UNL1        0.0621
     25 H           8.6694    0.2012    0.0000 H       1  UNL1        0.0621
     26 H           2.8660    0.9187    0.0000 H       1  UNL1        0.0692
     27 H           8.6570   -3.0387    0.0000 H       1  UNL1        0.0618
     28 H          10.0693   -0.6142    0.0000 H       1  UNL1        0.0618
     29 H          10.0630   -2.2342    0.0000 H       1  UNL1        0.0618
     30 H           3.7320    2.4187    0.0000 H       1  UNL1        0.2922
     31 H           3.7320   -2.2013    0.0000 H       1  UNL1        0.2924
     32 H           2.0000   -0.5813    0.0000 H       1  UNL1        0.2923
@<TRIPOS>BOND
     1     1     6    1
     2     1    10    1
     3     2     9    2
     4     3    12    1
     5     3    30    1
     6     4    13    1
     7     4    31    1
     8     5    16    1
     9     5    32    1
    10     6     7    1
    11     6    11    1
    12     6    21    1
    13     7     9    1
    14     7    22    1
    15     7    23    1
    16     8     9    1
    17     8    10   ar
    18     8    12   ar
    19    10    13   ar
    20    11    14   ar
    21    11    15   ar
    22    12    17   ar
    23    13    16   ar
    24    14    18   ar
    25    14    24    1
    26    15    19   ar
    27    15    25    1
    28    16    17   ar
    29    17    26    1
    30    18    20   ar
    31    18    27    1
    32    19    20   ar
    33    19    28    1
    34    20    29    1
