@<TRIPOS>MOLECULE
IMPHY010239
 51 54 0 0 0
SMALL
GASTEIGER

@<TRIPOS>ATOM
      1 O           2.0000   -2.3547    0.0000 O.2     1  UNL1       -0.3004
      2 C           6.2038    0.1363    0.0000 C.3     1  UNL1       -0.0217
      3 C           5.3352    0.6319    0.0000 C.3     1  UNL1       -0.0294
      4 C           4.4278    0.1206    0.0000 C.3     1  UNL1       -0.0250
      5 C           4.4250   -0.9211    0.0000 C.3     1  UNL1       -0.0235
      6 C           6.1793    1.3176    0.0000 C.3     1  UNL1       -0.0403
      7 C           6.2250   -0.9052    0.0000 C.3     1  UNL1       -0.0465
      8 C           6.8554    2.2867    0.0000 C.3     1  UNL1       -0.0196
      9 C           5.3296   -1.4374    0.0000 C.3     1  UNL1       -0.0483
     10 C           5.1813    1.6200    0.0000 C.3     1  UNL1       -0.0487
     11 C           7.1328    0.5062    0.0000 C.3     1  UNL1       -0.0258
     12 C           3.4923   -1.4755    0.0000 C.3     1  UNL1        0.0265
     13 C           3.4982    0.6800    0.0000 C.3     1  UNL1       -0.0470
     14 C           5.8578    2.3564    0.0000 C.3     1  UNL1       -0.0462
     15 C           7.4228    1.4633    0.0000 C.2     1  UNL1       -0.0730
     16 C           4.0883    1.0612    0.0000 C.3     1  UNL1       -0.0590
     17 C           2.5500   -0.9377    0.0000 C.3     1  UNL1       -0.0409
     18 C           2.5529    0.1473    0.0000 C.3     1  UNL1       -0.0517
     19 C           3.9999   -2.3370    0.0000 C.3     1  UNL1       -0.0528
     20 C           3.0000   -2.3459    0.0000 C.2     1  UNL1        0.1264
     21 C           8.4109    1.6172    0.0000 C.2     1  UNL1       -0.0992
     22 H           4.5970    1.0532    0.0000 H       1  UNL1        0.0312
     23 H           4.4325   -1.7710    0.0000 H       1  UNL1        0.0315
     24 H           5.8050    1.8119    0.0000 H       1  UNL1        0.0276
     25 H           5.5936    1.1141    0.0000 H       1  UNL1        0.0276
     26 H           6.4459   -1.4845    0.0000 H       1  UNL1        0.0271
     27 H           6.8336   -0.7866    0.0000 H       1  UNL1        0.0271
     28 H           7.1018    3.1002    0.0000 H       1  UNL1        0.0346
     29 H           4.9347   -1.9153    0.0000 H       1  UNL1        0.0269
     30 H           5.7329   -1.9083    0.0000 H       1  UNL1        0.0269
     31 H           4.8295    2.1305    0.0000 H       1  UNL1        0.0268
     32 H           4.6053    1.3906    0.0000 H       1  UNL1        0.0268
     33 H           7.2283   -0.1064    0.0000 H       1  UNL1        0.0315
     34 H           7.7513    0.4630    0.0000 H       1  UNL1        0.0315
     35 H           3.9040    1.1487    0.0000 H       1  UNL1        0.0271
     36 H           3.1058    1.1601    0.0000 H       1  UNL1        0.0271
     37 H           6.0376    2.9498    0.0000 H       1  UNL1        0.0271
     38 H           5.3193    2.6638    0.0000 H       1  UNL1        0.0271
     39 H           4.6715    1.2716    0.0000 H       1  UNL1        0.0235
     40 H           3.8779    1.6444    0.0000 H       1  UNL1        0.0235
     41 H           3.5052    0.8507    0.0000 H       1  UNL1        0.0235
     42 H           1.9394   -0.8299    0.0000 H       1  UNL1        0.0275
     43 H           2.3393   -1.5208    0.0000 H       1  UNL1        0.0275
     44 H           2.3454    0.7316    0.0000 H       1  UNL1        0.0266
     45 H           1.9418    0.0429    0.0000 H       1  UNL1        0.0266
     46 H           3.4658   -2.6518    0.0000 H       1  UNL1        0.0239
     47 H           4.3147   -2.8712    0.0000 H       1  UNL1        0.0239
     48 H           4.5341   -2.0223    0.0000 H       1  UNL1        0.0239
     49 H           3.3147   -2.8800    0.0000 H       1  UNL1        0.1032
     50 H           8.7998    1.1344    0.0000 H       1  UNL1        0.0534
     51 H           8.6345    2.1955    0.0000 H       1  UNL1        0.0534
@<TRIPOS>BOND
     1     1    20    2
     2     2     3    1
     3     2     6    1
     4     2     7    1
     5     2    11    1
     6     3     4    1
     7     3    10    1
     8     3    22    1
     9     4     5    1
    10     4    13    1
    11     4    16    1
    12     5     9    1
    13     5    12    1
    14     5    23    1
    15     6     8    1
    16     6    24    1
    17     6    25    1
    18     7     9    1
    19     7    26    1
    20     7    27    1
    21     8    14    1
    22     8    15    1
    23     8    28    1
    24     9    29    1
    25     9    30    1
    26    10    14    1
    27    10    31    1
    28    10    32    1
    29    11    15    1
    30    11    33    1
    31    11    34    1
    32    12    17    1
    33    12    19    1
    34    12    20    1
    35    13    18    1
    36    13    35    1
    37    13    36    1
    38    14    37    1
    39    14    38    1
    40    15    21    2
    41    16    39    1
    42    16    40    1
    43    16    41    1
    44    17    18    1
    45    17    42    1
    46    17    43    1
    47    18    44    1
    48    18    45    1
    49    19    46    1
    50    19    47    1
    51    19    48    1
    52    20    49    1
    53    21    50    1
    54    21    51    1
