@<TRIPOS>MOLECULE
IMPHY008410
 54 57 0 0 0
SMALL
GASTEIGER

@<TRIPOS>ATOM
      1 O           6.3234    3.4824    0.0000 O.3     1  UNL1       -0.3947
      2 O           4.4111    1.2446    0.0000 O.2     1  UNL1       -0.2917
      3 O           6.3590   -2.6535    0.0000 O.3     1  UNL1       -0.4910
      4 O          10.5980   -0.0835    0.0000 O.3     1  UNL1       -0.4910
      5 O           9.3421   -3.3930    0.0000 O.3     1  UNL1       -0.4913
      6 O          10.9340   -2.1040    0.0000 O.3     1  UNL1       -0.5009
      7 O           2.8269   -2.4202    0.0000 O.3     1  UNL1       -0.4913
      8 O           4.5250   -3.5656    0.0000 O.3     1  UNL1       -0.5009
      9 C           6.3234    1.7504    0.0000 C.3     1  UNL1        0.0033
     10 C           6.8012   -0.1982    0.0000 C.3     1  UNL1        0.0195
     11 C           7.0600    0.7678    0.0000 C.3     1  UNL1        0.0320
     12 C           8.4917    0.5701    0.0000 C.3     1  UNL1       -0.0136
     13 C           8.0729   -0.9928    0.0000 C.ar    1  UNL1       -0.0291
     14 C           5.5802   -1.0638    0.0000 C.ar    1  UNL1        0.0164
     15 C           8.8500   -0.3635    0.0000 C.ar    1  UNL1        0.0026
     16 C           5.0268    0.4566    0.0000 C.2     1  UNL1        0.1674
     17 C           5.8234    2.6164    0.0000 C.3     1  UNL1        0.0485
     18 C           4.7512   -0.5046    0.0000 C.ar    1  UNL1        0.0286
     19 C           8.2200   -2.0240    0.0000 C.ar    1  UNL1       -0.0120
     20 C           5.5236   -2.1039    0.0000 C.ar    1  UNL1        0.1694
     21 C           9.8281   -0.7217    0.0000 C.ar    1  UNL1        0.1684
     22 C           3.8080   -0.9468    0.0000 C.ar    1  UNL1       -0.0053
     23 C           9.1895   -2.4048    0.0000 C.ar    1  UNL1        0.1653
     24 C           9.9990   -1.7492    0.0000 C.ar    1  UNL1        0.2013
     25 C           4.5909   -2.5677    0.0000 C.ar    1  UNL1        0.2013
     26 C           3.7274   -1.9853    0.0000 C.ar    1  UNL1        0.1657
     27 C           6.3008   -3.6518    0.0000 C.3     1  UNL1        0.0790
     28 C          11.5356   -0.4310    0.0000 C.3     1  UNL1        0.0790
     29 C           8.5626   -4.0194    0.0000 C.3     1  UNL1        0.0790
     30 C           2.0000   -1.8578    0.0000 C.3     1  UNL1        0.0790
     31 H           6.8409    2.0919    0.0000 H       1  UNL1        0.0339
     32 H           7.3035    0.1653    0.0000 H       1  UNL1        0.0402
     33 H           7.0646    0.1478    0.0000 H       1  UNL1        0.0388
     34 H           9.0995    0.6924    0.0000 H       1  UNL1        0.0321
     35 H           8.4726    1.1898    0.0000 H       1  UNL1        0.0321
     36 H           5.3485    3.0149    0.0000 H       1  UNL1        0.0560
     37 H           5.3485    2.2179    0.0000 H       1  UNL1        0.0560
     38 H           7.7337   -2.4086    0.0000 H       1  UNL1        0.0658
     39 H           3.2981   -0.5941    0.0000 H       1  UNL1        0.0662
     40 H           6.0134    4.0194    0.0000 H       1  UNL1        0.2094
     41 H          11.0333   -2.7160    0.0000 H       1  UNL1        0.2924
     42 H           3.9688   -3.8395    0.0000 H       1  UNL1        0.2924
     43 H           5.6818   -3.6157    0.0000 H       1  UNL1        0.0660
     44 H           6.2647   -4.2707    0.0000 H       1  UNL1        0.0660
     45 H           6.9198   -3.6879    0.0000 H       1  UNL1        0.0660
     46 H          11.3201   -1.0124    0.0000 H       1  UNL1        0.0660
     47 H          12.1170   -0.6465    0.0000 H       1  UNL1        0.0660
     48 H          11.7511    0.1503    0.0000 H       1  UNL1        0.0660
     49 H           8.1742   -3.5360    0.0000 H       1  UNL1        0.0660
     50 H           8.0792   -4.4077    0.0000 H       1  UNL1        0.0660
     51 H           8.9509   -4.5027    0.0000 H       1  UNL1        0.0660
     52 H           2.3487   -1.3451    0.0000 H       1  UNL1        0.0660
     53 H           1.4873   -1.5091    0.0000 H       1  UNL1        0.0660
     54 H           1.6513   -2.3704    0.0000 H       1  UNL1        0.0660
@<TRIPOS>BOND
     1     1    17    1
     2     1    40    1
     3     2    16    2
     4     3    20    1
     5     3    27    1
     6     4    21    1
     7     4    28    1
     8     5    23    1
     9     5    29    1
    10     6    24    1
    11     6    41    1
    12     7    26    1
    13     7    30    1
    14     8    25    1
    15     8    42    1
    16     9    10    1
    17     9    11    1
    18     9    17    1
    19     9    31    1
    20    10    13    1
    21    10    14    1
    22    10    32    1
    23    11    12    1
    24    11    16    1
    25    11    33    1
    26    12    15    1
    27    12    34    1
    28    12    35    1
    29    13    15   ar
    30    13    19   ar
    31    14    18   ar
    32    14    20   ar
    33    15    21   ar
    34    16    18    1
    35    17    36    1
    36    17    37    1
    37    18    22   ar
    38    19    23   ar
    39    19    38    1
    40    20    25   ar
    41    21    24   ar
    42    22    26   ar
    43    22    39    1
    44    23    24   ar
    45    25    26   ar
    46    27    43    1
    47    27    44    1
    48    27    45    1
    49    28    46    1
    50    28    47    1
    51    28    48    1
    52    29    49    1
    53    29    50    1
    54    29    51    1
    55    30    52    1
    56    30    53    1
    57    30    54    1
