@<TRIPOS>MOLECULE
IMPHY003719
 39 41 0 0 0
SMALL
GASTEIGER

@<TRIPOS>ATOM
      1 C           2.9986   -0.3765    0.0000 C.3     1  UNL1       -0.0222
      2 C           5.8153   -0.2913    0.0000 C.3     1  UNL1       -0.0276
      3 C           4.4164   -0.3001    0.0000 C.3     1  UNL1       -0.0311
      4 C           4.6752    0.6658    0.0000 C.3     1  UNL1       -0.0111
      5 C           5.3659   -1.1800    0.0000 C.3     1  UNL1       -0.0350
      6 C           3.5009   -1.2364    0.0000 C.3     1  UNL1       -0.0465
      7 C           3.1954    1.3176    0.0000 C.3     1  UNL1       -0.0457
      8 C           4.4439   -1.5565    0.0000 C.3     1  UNL1       -0.0492
      9 C           4.5967    2.1266    0.0000 C.2     1  UNL1       -0.0727
     10 C           2.0000   -0.4302    0.0000 C.3     1  UNL1       -0.0587
     11 C           3.6022    2.2311    0.0000 C.3     1  UNL1       -0.0314
     12 C           6.0440   -1.9150    0.0000 C.3     1  UNL1       -0.0436
     13 C           5.2658    2.8697    0.0000 C.2     1  UNL1       -0.0992
     14 C           5.7465   -2.8697    0.0000 C.3     1  UNL1       -0.0624
     15 C           7.0195   -1.6953    0.0000 C.3     1  UNL1       -0.0624
     16 H           6.6653   -0.2859    0.0000 H       1  UNL1        0.0312
     17 H           4.1964   -1.1212    0.0000 H       1  UNL1        0.0309
     18 H           5.2299    0.9428    0.0000 H       1  UNL1        0.0354
     19 H           5.2312   -1.7852    0.0000 H       1  UNL1        0.0306
     20 H           2.8991   -1.3858    0.0000 H       1  UNL1        0.0271
     21 H           3.4749   -1.8558    0.0000 H       1  UNL1        0.0271
     22 H           2.6793    1.6611    0.0000 H       1  UNL1        0.0271
     23 H           2.7702    0.8664    0.0000 H       1  UNL1        0.0271
     24 H           4.0874   -2.0638    0.0000 H       1  UNL1        0.0268
     25 H           4.8304   -2.0413    0.0000 H       1  UNL1        0.0268
     26 H           1.9667    0.1889    0.0000 H       1  UNL1        0.0235
     27 H           1.3809   -0.4636    0.0000 H       1  UNL1        0.0235
     28 H           2.0333   -1.0493    0.0000 H       1  UNL1        0.0235
     29 H           3.7311    2.8376    0.0000 H       1  UNL1        0.0310
     30 H           3.0125    2.4227    0.0000 H       1  UNL1        0.0310
     31 H           6.2284   -1.3231    0.0000 H       1  UNL1        0.0298
     32 H           5.8723    2.7408    0.0000 H       1  UNL1        0.0534
     33 H           5.0742    3.4594    0.0000 H       1  UNL1        0.0534
     34 H           5.1545   -2.6853    0.0000 H       1  UNL1        0.0232
     35 H           5.5620   -3.4616    0.0000 H       1  UNL1        0.0232
     36 H           6.3384   -3.0542    0.0000 H       1  UNL1        0.0232
     37 H           7.1557   -2.3001    0.0000 H       1  UNL1        0.0232
     38 H           7.6244   -1.5590    0.0000 H       1  UNL1        0.0232
     39 H           6.8833   -1.0904    0.0000 H       1  UNL1        0.0232
@<TRIPOS>BOND
     1     1     3    1
     2     1     4    1
     3     1     6    1
     4     1    10    1
     5     2     3    1
     6     2     4    1
     7     2     5    1
     8     2    16    1
     9     3     7    1
    10     3    17    1
    11     4     9    1
    12     4    18    1
    13     5     8    1
    14     5    12    1
    15     5    19    1
    16     6     8    1
    17     6    20    1
    18     6    21    1
    19     7    11    1
    20     7    22    1
    21     7    23    1
    22     8    24    1
    23     8    25    1
    24     9    11    1
    25     9    13    2
    26    10    26    1
    27    10    27    1
    28    10    28    1
    29    11    29    1
    30    11    30    1
    31    12    14    1
    32    12    15    1
    33    12    31    1
    34    13    32    1
    35    13    33    1
    36    14    34    1
    37    14    35    1
    38    14    36    1
    39    15    37    1
    40    15    38    1
    41    15    39    1
