@<TRIPOS>MOLECULE
IMPHY000237
 51 53 0 0 0
SMALL
GASTEIGER

@<TRIPOS>ATOM
      1 O           6.8671   -1.1176    0.0000 O.3     1  UNL1       -0.3093
      2 O           5.1350   -1.1176    0.0000 O.3     1  UNL1       -0.3404
      3 O           6.0010    0.3825    0.0000 O.2     1  UNL1       -0.4699
      4 O           7.7490    3.4517    0.0000 O.3     1  UNL1       -0.4317
      5 O           6.8671   -3.1176    0.0000 O.3     1  UNL1       -0.3841
      6 O           5.1350   -4.1175    0.0000 O.3     1  UNL1       -0.3864
      7 O           3.4030   -3.1176    0.0000 O.3     1  UNL1       -0.3865
      8 O           9.5191    3.4276    0.0000 O.3     1  UNL1       -0.3447
      9 O           2.5369   -1.6176    0.0000 O.3     1  UNL1       -0.3924
     10 O           5.9793    3.4139    0.0000 O.2     1  UNL1       -0.2451
     11 C           7.7331    1.3824    0.0000 C.3     1  UNL1        0.0114
     12 C           7.7331    0.3825    0.0000 C.3     1  UNL1        0.0468
     13 C           6.8671   -0.1175    0.0000 C.3     1  UNL1        0.2102
     14 C           6.0010   -1.6176    0.0000 C.3     1  UNL1        0.1918
     15 C           6.0010   -2.6176    0.0000 C.3     1  UNL1        0.1342
     16 C           5.1350   -3.1176    0.0000 C.3     1  UNL1        0.1141
     17 C           8.6431    1.8893    0.0000 C.3     1  UNL1        0.0179
     18 C           4.2690   -2.6176    0.0000 C.3     1  UNL1        0.1119
     19 C           4.2690   -1.6176    0.0000 C.3     1  UNL1        0.1130
     20 C           6.8671    1.8824    0.0000 C.2     1  UNL1        0.0748
     21 C           8.6511    2.9309    0.0000 C.3     1  UNL1        0.2053
     22 C           8.5991   -0.1175    0.0000 C.2     1  UNL1       -0.0816
     23 C           6.0010    1.3824    0.0000 C.2     1  UNL1        0.0981
     24 C           3.4030   -1.1176    0.0000 C.3     1  UNL1        0.0730
     25 C           6.8510    2.9240    0.0000 C.2     1  UNL1        0.3405
     26 C           9.4651    0.3825    0.0000 C.2     1  UNL1       -0.1022
     27 C           9.5229    4.4276    0.0000 C.3     1  UNL1        0.0405
     28 H           8.2676    1.0683    0.0000 H       1  UNL1        0.0362
     29 H           7.7331   -0.2375    0.0000 H       1  UNL1        0.0410
     30 H           6.3301   -0.4275    0.0000 H       1  UNL1        0.1062
     31 H           6.0010   -0.9975    0.0000 H       1  UNL1        0.0939
     32 H           6.0010   -3.2376    0.0000 H       1  UNL1        0.0671
     33 H           4.5981   -3.4276    0.0000 H       1  UNL1        0.0648
     34 H           8.8476    1.3040    0.0000 H       1  UNL1        0.0331
     35 H           9.2547    1.9907    0.0000 H       1  UNL1        0.0331
     36 H           3.7320   -2.3076    0.0000 H       1  UNL1        0.0647
     37 H           4.2690   -0.9975    0.0000 H       1  UNL1        0.0647
     38 H           8.6523    3.5509    0.0000 H       1  UNL1        0.1057
     39 H           8.5991   -0.7375    0.0000 H       1  UNL1        0.0571
     40 H           5.4641    1.6924    0.0000 H       1  UNL1        0.1029
     41 H           3.8015   -0.6426    0.0000 H       1  UNL1        0.0584
     42 H           3.0044   -0.6426    0.0000 H       1  UNL1        0.0584
     43 H           6.8671   -3.7376    0.0000 H       1  UNL1        0.2101
     44 H           4.5981   -4.4276    0.0000 H       1  UNL1        0.2100
     45 H           3.4030   -3.7376    0.0000 H       1  UNL1        0.2100
     46 H          10.0021    0.0725    0.0000 H       1  UNL1        0.0532
     47 H           9.4651    1.0024    0.0000 H       1  UNL1        0.0532
     48 H           2.0000   -1.3076    0.0000 H       1  UNL1        0.2095
     49 H          10.1429    4.4252    0.0000 H       1  UNL1        0.0525
     50 H           9.5253    5.0475    0.0000 H       1  UNL1        0.0525
     51 H           8.9029    4.4299    0.0000 H       1  UNL1        0.0525
@<TRIPOS>BOND
     1     1    13    1
     2    14     1    1
     3     2    14    1
     4     2    19    1
     5     3    13    1
     6     3    23    1
     7     4    21    1
     8     4    25    1
     9    15     5    1
    10     5    43    1
    11    16     6    1
    12     6    44    1
    13    18     7    1
    14     7    45    1
    15     8    21    1
    16     8    27    1
    17     9    24    1
    18     9    48    1
    19    10    25    2
    20    11    12    1
    21    11    17    1
    22    11    20    1
    23    11    28    1
    24    12    13    1
    25    12    22    1
    26    12    29    1
    27    13    30    1
    28    14    15    1
    29    14    31    1
    30    15    16    1
    31    15    32    1
    32    16    18    1
    33    16    33    1
    34    17    21    1
    35    17    34    1
    36    17    35    1
    37    18    19    1
    38    18    36    1
    39    19    24    1
    40    19    37    1
    41    20    23    2
    42    20    25    1
    43    21    38    1
    44    22    26    2
    45    22    39    1
    46    23    40    1
    47    24    41    1
    48    24    42    1
    49    26    46    1
    50    26    47    1
    51    27    49    1
    52    27    50    1
    53    27    51    1
