@<TRIPOS>MOLECULE
IMPHY014278
 32 34 0 0 0
SMALL
GASTEIGER

@<TRIPOS>ATOM
      1 O           2.9176   -1.9377    0.0000 O.3     1  UNL1       -0.4944
      2 O           6.4144    2.1315    0.0000 O.3     1  UNL1       -0.5058
      3 O           4.6660    2.0969    0.0000 O.2     1  UNL1       -0.2865
      4 O           4.6660   -1.9031    0.0000 O.2     1  UNL1       -0.2865
      5 C           5.5321    0.5969    0.0000 C.ar    1  UNL1        0.0747
      6 C           5.5321   -0.4031    0.0000 C.ar    1  UNL1        0.0367
      7 C           3.8000   -0.4031    0.0000 C.ar    1  UNL1        0.0746
      8 C           3.8000    0.5969    0.0000 C.ar    1  UNL1        0.0367
      9 C           4.6660    1.0969    0.0000 C.2     1  UNL1        0.1981
     10 C           4.6660   -0.9031    0.0000 C.2     1  UNL1        0.1981
     11 C           6.4260    1.1316    0.0000 C.ar    1  UNL1        0.1312
     12 C           7.3321    0.6177    0.0000 C.ar    1  UNL1       -0.0083
     13 C           6.4260   -0.9378    0.0000 C.ar    1  UNL1       -0.0498
     14 C           2.9061   -0.9378    0.0000 C.ar    1  UNL1        0.1316
     15 C           2.9061    1.1316    0.0000 C.ar    1  UNL1       -0.0500
     16 C           7.3321   -0.4239    0.0000 C.ar    1  UNL1       -0.0547
     17 C           2.0000   -0.4239    0.0000 C.ar    1  UNL1       -0.0192
     18 C           2.0000    0.6177    0.0000 C.ar    1  UNL1       -0.0576
     19 C           8.1962    1.1211    0.0000 C.3     1  UNL1       -0.0362
     20 C           2.0574   -2.4477    0.0000 C.3     1  UNL1        0.0788
     21 H           6.4188   -1.5577    0.0000 H       1  UNL1        0.0625
     22 H           2.9132    1.7515    0.0000 H       1  UNL1        0.0625
     23 H           7.8678   -0.7360    0.0000 H       1  UNL1        0.0622
     24 H           1.4643   -0.7360    0.0000 H       1  UNL1        0.0654
     25 H           1.4643    0.9298    0.0000 H       1  UNL1        0.0619
     26 H           8.5082    0.5853    0.0000 H       1  UNL1        0.0279
     27 H           8.7319    1.4331    0.0000 H       1  UNL1        0.0279
     28 H           7.8841    1.6568    0.0000 H       1  UNL1        0.0279
     29 H           6.9478    2.4477    0.0000 H       1  UNL1        0.2922
     30 H           1.7413   -1.9144    0.0000 H       1  UNL1        0.0660
     31 H           1.5241   -2.7639    0.0000 H       1  UNL1        0.0660
     32 H           2.3736   -2.9810    0.0000 H       1  UNL1        0.0660
@<TRIPOS>BOND
     1     1    14    1
     2     1    20    1
     3     2    11    1
     4     2    29    1
     5     3     9    2
     6     4    10    2
     7     5     6   ar
     8     5     9    1
     9     5    11   ar
    10     6    10    1
    11     6    13   ar
    12     7     8   ar
    13     7    10    1
    14     7    14   ar
    15     8     9    1
    16     8    15   ar
    17    11    12   ar
    18    12    16   ar
    19    12    19    1
    20    13    16   ar
    21    13    21    1
    22    14    17   ar
    23    15    18   ar
    24    15    22    1
    25    16    23    1
    26    17    18   ar
    27    17    24    1
    28    18    25    1
    29    19    26    1
    30    19    27    1
    31    19    28    1
    32    20    30    1
    33    20    31    1
    34    20    32    1
