@<TRIPOS>MOLECULE
IMPHY000751
 42 45 0 0 0
SMALL
GASTEIGER

@<TRIPOS>ATOM
      1 O           8.6793   -0.3563    0.0000 O.2     1  UNL1       -0.4511
      2 O           6.8671   -1.5515    0.0000 O.3     1  UNL1       -0.4914
      3 O          12.4300    2.0515    0.0000 O.3     1  UNL1       -0.4526
      4 O          13.2347    0.6577    0.0000 O.3     1  UNL1       -0.4526
      5 O           2.5369    0.9485    0.0000 O.3     1  UNL1       -0.3950
      6 C           7.7331    0.9485    0.0000 C.ar    1  UNL1        0.0247
      7 C           6.0010    0.9485    0.0000 C.ar    1  UNL1       -0.0430
      8 C           5.1350    1.4485    0.0000 C.3     1  UNL1       -0.0255
      9 C           7.7331   -0.0515    0.0000 C.ar    1  UNL1        0.1771
     10 C           6.8671    1.4485    0.0000 C.ar    1  UNL1       -0.0475
     11 C           9.2629    0.4485    0.0000 C.ar    1  UNL1        0.1365
     12 C           8.6793    1.2532    0.0000 C.ar    1  UNL1       -0.0080
     13 C           6.8671   -0.5515    0.0000 C.ar    1  UNL1        0.1630
     14 C           4.2690    0.9485    0.0000 C.3     1  UNL1       -0.0257
     15 C           6.0010   -0.0515    0.0000 C.ar    1  UNL1       -0.0131
     16 C          10.2629    0.4485    0.0000 C.ar    1  UNL1        0.0210
     17 C          10.7629    1.3145    0.0000 C.ar    1  UNL1       -0.0055
     18 C          11.7629    1.3145    0.0000 C.ar    1  UNL1        0.1669
     19 C           3.4030    1.4485    0.0000 C.3     1  UNL1        0.0445
     20 C          10.7629   -0.4175    0.0000 C.ar    1  UNL1       -0.0474
     21 C          12.2629    0.4485    0.0000 C.ar    1  UNL1        0.1663
     22 C          11.7629   -0.4175    0.0000 C.ar    1  UNL1       -0.0155
     23 C          13.3378    1.6464    0.0000 C.3     1  UNL1        0.2332
     24 C           6.0010   -2.0515    0.0000 C.3     1  UNL1        0.0790
     25 H           5.5335    1.9234    0.0000 H       1  UNL1        0.0314
     26 H           4.7365    1.9234    0.0000 H       1  UNL1        0.0314
     27 H           6.8671    2.0685    0.0000 H       1  UNL1        0.0627
     28 H           8.8719    1.8425    0.0000 H       1  UNL1        0.0661
     29 H           3.8705    0.4735    0.0000 H       1  UNL1        0.0290
     30 H           4.6675    0.4735    0.0000 H       1  UNL1        0.0290
     31 H           5.4641   -0.3615    0.0000 H       1  UNL1        0.0658
     32 H          10.4529    1.8514    0.0000 H       1  UNL1        0.0662
     33 H          10.4529   -0.9545    0.0000 H       1  UNL1        0.0626
     34 H           3.8015    1.9234    0.0000 H       1  UNL1        0.0557
     35 H           3.0044    1.9234    0.0000 H       1  UNL1        0.0557
     36 H          12.0729   -0.9545    0.0000 H       1  UNL1        0.0655
     37 H          13.9443    1.5177    0.0000 H       1  UNL1        0.1166
     38 H          13.5295    2.2360    0.0000 H       1  UNL1        0.1166
     39 H           5.6910   -1.5146    0.0000 H       1  UNL1        0.0660
     40 H           5.4641   -2.3615    0.0000 H       1  UNL1        0.0660
     41 H           6.3110   -2.5885    0.0000 H       1  UNL1        0.0660
     42 H           2.0000    1.2585    0.0000 H       1  UNL1        0.2094
@<TRIPOS>BOND
     1     1     9   ar
     2     1    11   ar
     3     2    13    1
     4     2    24    1
     5     3    18    1
     6     3    23    1
     7     4    21    1
     8     4    23    1
     9     5    19    1
    10     5    42    1
    11     6     9   ar
    12     6    10   ar
    13     6    12   ar
    14     7     8    1
    15     7    10   ar
    16     7    15   ar
    17     8    14    1
    18     8    25    1
    19     8    26    1
    20     9    13   ar
    21    10    27    1
    22    11    12   ar
    23    11    16    1
    24    12    28    1
    25    13    15   ar
    26    14    19    1
    27    14    29    1
    28    14    30    1
    29    15    31    1
    30    16    17   ar
    31    16    20   ar
    32    17    18   ar
    33    17    32    1
    34    18    21   ar
    35    19    34    1
    36    19    35    1
    37    20    22   ar
    38    20    33    1
    39    21    22   ar
    40    22    36    1
    41    23    37    1
    42    23    38    1
    43    24    39    1
    44    24    40    1
    45    24    41    1
