@<TRIPOS>MOLECULE
IMPHY016097
 24 23 0 0 0
SMALL
GASTEIGER

@<TRIPOS>ATOM
      1 O           7.1962   -1.8100    0.0000 O.2     1  UNL1       -0.3007
      2 C           4.5981    0.6900    0.0000 C.3     1  UNL1       -0.0165
      3 C           2.8660   -0.3100    0.0000 C.3     1  UNL1       -0.0376
      4 C           3.7320    1.1900    0.0000 C.2     1  UNL1       -0.0842
      5 C           2.8660    0.6900    0.0000 C.2     1  UNL1       -0.0879
      6 C           5.4641    1.1900    0.0000 C.2     1  UNL1       -0.0838
      7 C           2.0000   -0.8100    0.0000 C.3     1  UNL1       -0.0618
      8 C           6.3301    0.6900    0.0000 C.2     1  UNL1       -0.0808
      9 C           6.3301   -0.3100    0.0000 C.3     1  UNL1        0.0210
     10 C           7.1962   -0.8100    0.0000 C.2     1  UNL1        0.1240
     11 H           4.1996    0.2151    0.0000 H       1  UNL1        0.0350
     12 H           4.9966    0.2151    0.0000 H       1  UNL1        0.0350
     13 H           3.0781   -0.8926    0.0000 H       1  UNL1        0.0305
     14 H           3.4766   -0.2023    0.0000 H       1  UNL1        0.0305
     15 H           3.7320    1.8100    0.0000 H       1  UNL1        0.0572
     16 H           2.3291    1.0000    0.0000 H       1  UNL1        0.0569
     17 H           5.4641    1.8100    0.0000 H       1  UNL1        0.0572
     18 H           1.6900   -0.2731    0.0000 H       1  UNL1        0.0233
     19 H           1.4631   -1.1200    0.0000 H       1  UNL1        0.0233
     20 H           2.3100   -1.3469    0.0000 H       1  UNL1        0.0233
     21 H           6.8671    1.0000    0.0000 H       1  UNL1        0.0573
     22 H           5.7196   -0.2023    0.0000 H       1  UNL1        0.0381
     23 H           6.1181   -0.8926    0.0000 H       1  UNL1        0.0381
     24 H           7.7331   -0.5000    0.0000 H       1  UNL1        0.1029
@<TRIPOS>BOND
     1     1    10    2
     2     2     4    1
     3     2     6    1
     4     2    11    1
     5     2    12    1
     6     3     5    1
     7     3     7    1
     8     3    13    1
     9     3    14    1
    10     4     5    2
    11     4    15    1
    12     5    16    1
    13     6     8    2
    14     6    17    1
    15     7    18    1
    16     7    19    1
    17     7    20    1
    18     8     9    1
    19     8    21    1
    20     9    10    1
    21     9    22    1
    22     9    23    1
    23    10    24    1
