@<TRIPOS>MOLECULE
IMPHY000648
 26 25 0 0 0
SMALL
GASTEIGER

@<TRIPOS>ATOM
      1 O           5.4641    0.2500    0.0000 O.3     1  UNL1       -0.4644
      2 O           4.5981   -1.2500    0.0000 O.2     1  UNL1       -0.2509
      3 C           7.1962    0.2500    0.0000 C.3     1  UNL1       -0.0123
      4 C           6.3301   -0.2500    0.0000 C.3     1  UNL1        0.0948
      5 C           8.0622   -0.2500    0.0000 C.3     1  UNL1       -0.0596
      6 C           7.1962    1.2500    0.0000 C.3     1  UNL1       -0.0596
      7 C           3.7320    0.2500    0.0000 C.3     1  UNL1        0.0447
      8 C           2.8660   -0.2500    0.0000 C.3     1  UNL1       -0.0458
      9 C           4.5981   -0.2500    0.0000 C.2     1  UNL1        0.3071
     10 C           2.0000    0.2500    0.0000 C.3     1  UNL1       -0.0648
     11 H           6.6592    0.5600    0.0000 H       1  UNL1        0.0328
     12 H           5.9316   -0.7249    0.0000 H       1  UNL1        0.0700
     13 H           6.7287   -0.7249    0.0000 H       1  UNL1        0.0700
     14 H           7.8162    1.2500    0.0000 H       1  UNL1        0.0233
     15 H           7.1962    1.8700    0.0000 H       1  UNL1        0.0233
     16 H           6.5762    1.2500    0.0000 H       1  UNL1        0.0233
     17 H           7.7522   -0.7869    0.0000 H       1  UNL1        0.0233
     18 H           8.5991   -0.5600    0.0000 H       1  UNL1        0.0233
     19 H           8.3722    0.2869    0.0000 H       1  UNL1        0.0233
     20 H           4.1306    0.7249    0.0000 H       1  UNL1        0.0377
     21 H           3.3335    0.7249    0.0000 H       1  UNL1        0.0377
     22 H           2.4675   -0.7249    0.0000 H       1  UNL1        0.0268
     23 H           3.2646   -0.7249    0.0000 H       1  UNL1        0.0268
     24 H           2.3100    0.7869    0.0000 H       1  UNL1        0.0230
     25 H           1.4631    0.5600    0.0000 H       1  UNL1        0.0230
     26 H           1.6900   -0.2869    0.0000 H       1  UNL1        0.0230
@<TRIPOS>BOND
     1     1     4    1
     2     1     9    1
     3     2     9    2
     4     3     4    1
     5     3     5    1
     6     3     6    1
     7     3    11    1
     8     4    12    1
     9     4    13    1
    10     5    17    1
    11     5    18    1
    12     5    19    1
    13     6    14    1
    14     6    15    1
    15     6    16    1
    16     7     8    1
    17     7     9    1
    18     7    20    1
    19     7    21    1
    20     8    10    1
    21     8    22    1
    22     8    23    1
    23    10    24    1
    24    10    25    1
    25    10    26    1
