@<TRIPOS>MOLECULE
IMPHY017607
 46 47 0 0 0
SMALL
GASTEIGER

@<TRIPOS>ATOM
      1 O           6.2564   -0.7305    0.0000 O.3     1  UNL1       -0.4608
      2 O           4.6867    0.0015    0.0000 O.2     1  UNL1       -0.2508
      3 C           8.0518    0.7678    0.0000 C.3     1  UNL1        0.0104
      4 C           7.5740    2.7164    0.0000 C.3     1  UNL1       -0.0232
      5 C           8.3106    1.7338    0.0000 C.3     1  UNL1       -0.0319
      6 C           6.6791    0.1758    0.0000 C.3     1  UNL1        0.1092
      7 C           9.4507    0.2590    0.0000 C.3     1  UNL1       -0.0435
      8 C           6.3370    1.1155    0.0000 C.3     1  UNL1       -0.0118
      9 C           9.7095    1.2249    0.0000 C.3     1  UNL1       -0.0490
     10 C           7.7929   -0.1981    0.0000 C.3     1  UNL1       -0.0557
     11 C           7.6785    3.7109    0.0000 C.3     1  UNL1       -0.0589
     12 C           6.6604    3.1231    0.0000 C.3     1  UNL1       -0.0589
     13 C           5.2602   -0.8177    0.0000 C.2     1  UNL1        0.3074
     14 C           4.8376   -1.7240    0.0000 C.3     1  UNL1        0.0449
     15 C           3.8414   -1.8111    0.0000 C.3     1  UNL1       -0.0430
     16 C           3.4188   -2.7174    0.0000 C.3     1  UNL1       -0.0528
     17 C           2.4226   -2.8046    0.0000 C.3     1  UNL1       -0.0559
     18 C           2.0000   -3.7109    0.0000 C.3     1  UNL1       -0.0653
     19 H           8.2966    1.1139    0.0000 H       1  UNL1        0.0307
     20 H           7.1110   -0.2689    0.0000 H       1  UNL1        0.0739
     21 H           9.2558   -0.3296    0.0000 H       1  UNL1        0.0272
     22 H          10.0447    0.0812    0.0000 H       1  UNL1        0.0272
     23 H           6.1427    1.7043    0.0000 H       1  UNL1        0.0304
     24 H           5.7513    0.9123    0.0000 H       1  UNL1        0.0304
     25 H          10.3035    1.0472    0.0000 H       1  UNL1        0.0268
     26 H           9.9044    1.8135    0.0000 H       1  UNL1        0.0268
     27 H           7.1941   -0.0376    0.0000 H       1  UNL1        0.0236
     28 H           7.6325   -0.7970    0.0000 H       1  UNL1        0.0236
     29 H           8.3918   -0.3586    0.0000 H       1  UNL1        0.0236
     30 H           8.2951    3.6461    0.0000 H       1  UNL1        0.0235
     31 H           7.7433    4.3275    0.0000 H       1  UNL1        0.0235
     32 H           7.0619    3.7757    0.0000 H       1  UNL1        0.0235
     33 H           6.9126    3.6895    0.0000 H       1  UNL1        0.0235
     34 H           6.0940    3.3753    0.0000 H       1  UNL1        0.0235
     35 H           6.4082    2.5567    0.0000 H       1  UNL1        0.0235
     36 H           4.7836   -2.3416    0.0000 H       1  UNL1        0.0377
     37 H           5.4365   -1.8844    0.0000 H       1  UNL1        0.0377
     38 H           3.8955   -1.1935    0.0000 H       1  UNL1        0.0270
     39 H           3.2426   -1.6506    0.0000 H       1  UNL1        0.0270
     40 H           3.3648   -3.3351    0.0000 H       1  UNL1        0.0265
     41 H           4.0177   -2.8779    0.0000 H       1  UNL1        0.0265
     42 H           2.4766   -2.1869    0.0000 H       1  UNL1        0.0263
     43 H           1.8237   -2.6441    0.0000 H       1  UNL1        0.0263
     44 H           1.4381   -3.4489    0.0000 H       1  UNL1        0.0230
     45 H           1.7380   -4.2728    0.0000 H       1  UNL1        0.0230
     46 H           2.5619   -3.9729    0.0000 H       1  UNL1        0.0230
@<TRIPOS>BOND
     1     6     1    1
     2     1    13    1
     3     2    13    2
     4     3     4    1
     5     3     6    1
     6     3     7    1
     7     3    10    1
     8     4     5    1
     9     4    11    1
    10     4    12    1
    11     5     8    1
    12     5     9    1
    13     5    19    1
    14     6     8    1
    15     6    20    1
    16     7     9    1
    17     7    21    1
    18     7    22    1
    19     8    23    1
    20     8    24    1
    21     9    25    1
    22     9    26    1
    23    10    27    1
    24    10    28    1
    25    10    29    1
    26    11    30    1
    27    11    31    1
    28    11    32    1
    29    12    33    1
    30    12    34    1
    31    12    35    1
    32    13    14    1
    33    14    15    1
    34    14    36    1
    35    14    37    1
    36    15    16    1
    37    15    38    1
    38    15    39    1
    39    16    17    1
    40    16    40    1
    41    16    41    1
    42    17    18    1
    43    17    42    1
    44    17    43    1
    45    18    44    1
    46    18    45    1
    47    18    46    1
