@<TRIPOS>MOLECULE
IMPHY005637
 75 79 0 0 0
SMALL
GASTEIGER

@<TRIPOS>ATOM
      1 O           7.5433   -1.0384    0.0000 O.3     1  UNL1       -0.3728
      2 O          11.3460   -3.7561    0.0000 O.3     1  UNL1       -0.3947
      3 C           6.4758    1.1965    0.0000 C.3     1  UNL1       -0.0234
      4 C           5.6098    0.6965    0.0000 C.3     1  UNL1       -0.0298
      5 C           4.7438    1.1965    0.0000 C.3     1  UNL1       -0.0343
      6 C           7.2129    0.5294    0.0000 C.3     1  UNL1       -0.0041
      7 C           4.7438    2.1965    0.0000 C.3     1  UNL1       -0.0323
      8 C           3.8498    2.7311    0.0000 C.3     1  UNL1       -0.0261
      9 C           6.8078   -0.3784    0.0000 C.3     1  UNL1        0.0630
     10 C           5.8190   -0.2754    0.0000 C.3     1  UNL1       -0.0227
     11 C           6.4758    2.1965    0.0000 C.3     1  UNL1       -0.0467
     12 C           5.6098    2.6965    0.0000 C.3     1  UNL1       -0.0489
     13 C           2.9438    2.2173    0.0000 C.3     1  UNL1       -0.0354
     14 C           8.1953    0.4227    0.0000 C.3     1  UNL1       -0.0119
     15 C           3.8498    0.6618    0.0000 C.3     1  UNL1       -0.0494
     16 C           2.9438    1.1756    0.0000 C.3     1  UNL1       -0.0494
     17 C           7.3419    1.6965    0.0000 C.3     1  UNL1       -0.0590
     18 C           8.3991   -0.5443    0.0000 C.3     1  UNL1        0.0620
     19 C           3.8749    3.8158    0.0000 C.3     1  UNL1       -0.0471
     20 C           2.0000    2.7525    0.0000 C.3     1  UNL1       -0.0497
     21 C           4.7197    3.2244    0.0000 C.3     1  UNL1       -0.0590
     22 C           2.9438    4.3727    0.0000 C.3     1  UNL1       -0.0525
     23 C           8.8663    1.1641    0.0000 C.3     1  UNL1       -0.0597
     24 C           2.0000    3.8375    0.0000 C.3     1  UNL1       -0.0528
     25 C           9.3123   -0.9518    0.0000 C.3     1  UNL1       -0.0260
     26 C           9.4159   -1.9464    0.0000 C.3     1  UNL1       -0.0460
     27 C          10.3291   -2.3539    0.0000 C.3     1  UNL1       -0.0206
     28 C          10.4328   -3.3486    0.0000 C.3     1  UNL1        0.0468
     29 C          11.1386   -1.7669    0.0000 C.3     1  UNL1       -0.0603
     30 H           4.9228    0.1959    0.0000 H       1  UNL1        0.0310
     31 H           4.7504    0.3465    0.0000 H       1  UNL1        0.0306
     32 H           7.5609    1.3048    0.0000 H       1  UNL1        0.0334
     33 H           5.4799    1.7715    0.0000 H       1  UNL1        0.0309
     34 H           6.4630   -1.1554    0.0000 H       1  UNL1        0.0599
     35 H           5.2025   -0.3414    0.0000 H       1  UNL1        0.0293
     36 H           5.8199   -0.8954    0.0000 H       1  UNL1        0.0293
     37 H           7.0864    2.0888    0.0000 H       1  UNL1        0.0271
     38 H           6.6879    2.7791    0.0000 H       1  UNL1        0.0271
     39 H           6.0084    3.1714    0.0000 H       1  UNL1        0.0268
     40 H           5.2113    3.1714    0.0000 H       1  UNL1        0.0268
     41 H           2.4080    1.9052    0.0000 H       1  UNL1        0.0306
     42 H           7.9748    1.0022    0.0000 H       1  UNL1        0.0327
     43 H           3.4562    0.1828    0.0000 H       1  UNL1        0.0268
     44 H           4.2544    0.1920    0.0000 H       1  UNL1        0.0268
     45 H           2.3329    1.2817    0.0000 H       1  UNL1        0.0268
     46 H           2.7347    0.5919    0.0000 H       1  UNL1        0.0268
     47 H           7.6519    1.1595    0.0000 H       1  UNL1        0.0235
     48 H           7.8788    2.0065    0.0000 H       1  UNL1        0.0235
     49 H           7.0319    2.2334    0.0000 H       1  UNL1        0.0235
     50 H           8.4312   -1.1634    0.0000 H       1  UNL1        0.0599
     51 H           4.4832    3.6956    0.0000 H       1  UNL1        0.0271
     52 H           4.0974    4.3945    0.0000 H       1  UNL1        0.0271
     53 H           1.3891    2.8586    0.0000 H       1  UNL1        0.0268
     54 H           1.7909    2.1688    0.0000 H       1  UNL1        0.0268
     55 H           5.0256    2.6851    0.0000 H       1  UNL1        0.0235
     56 H           5.2590    3.5303    0.0000 H       1  UNL1        0.0235
     57 H           4.4139    3.7637    0.0000 H       1  UNL1        0.0235
     58 H           3.3484    4.8425    0.0000 H       1  UNL1        0.0265
     59 H           2.5502    4.8518    0.0000 H       1  UNL1        0.0265
     60 H           9.3260    0.7480    0.0000 H       1  UNL1        0.0233
     61 H           9.2824    1.6238    0.0000 H       1  UNL1        0.0233
     62 H           8.4067    1.5801    0.0000 H       1  UNL1        0.0233
     63 H           1.7909    4.4212    0.0000 H       1  UNL1        0.0265
     64 H           1.3891    3.7314    0.0000 H       1  UNL1        0.0265
     65 H           9.9307   -0.9956    0.0000 H       1  UNL1        0.0290
     66 H           9.4628   -0.3504    0.0000 H       1  UNL1        0.0290
     67 H           8.7975   -1.9026    0.0000 H       1  UNL1        0.0269
     68 H           9.2654   -2.5479    0.0000 H       1  UNL1        0.0269
     69 H          10.2648   -1.7373    0.0000 H       1  UNL1        0.0320
     70 H           9.8143   -3.3048    0.0000 H       1  UNL1        0.0560
     71 H          10.2823   -3.9500    0.0000 H       1  UNL1        0.0560
     72 H          11.5026   -2.2688    0.0000 H       1  UNL1        0.0233
     73 H          11.6405   -1.4029    0.0000 H       1  UNL1        0.0233
     74 H          10.7747   -1.2650    0.0000 H       1  UNL1        0.0233
     75 H          11.4103   -4.3727    0.0000 H       1  UNL1        0.2094
@<TRIPOS>BOND
     1     1     9    1
     2     1    18    1
     3     2    28    1
     4     2    75    1
     5     3     4    1
     6     3     6    1
     7     3    11    1
     8     3    17    1
     9     4     5    1
    10     4    10    1
    11     4    30    1
    12     5     7    1
    13     5    15    1
    14     5    31    1
    15     6     9    1
    16     6    14    1
    17     6    32    1
    18     7     8    1
    19     7    12    1
    20     7    33    1
    21     8    13    1
    22     8    19    1
    23     8    21    1
    24     9    10    1
    25     9    34    1
    26    10    35    1
    27    10    36    1
    28    11    12    1
    29    11    37    1
    30    11    38    1
    31    12    39    1
    32    12    40    1
    33    13    16    1
    34    13    20    1
    35    13    41    1
    36    14    18    1
    37    14    23    1
    38    14    42    1
    39    15    16    1
    40    15    43    1
    41    15    44    1
    42    16    45    1
    43    16    46    1
    44    17    47    1
    45    17    48    1
    46    17    49    1
    47    18    25    1
    48    18    50    1
    49    19    22    1
    50    19    51    1
    51    19    52    1
    52    20    24    1
    53    20    53    1
    54    20    54    1
    55    21    55    1
    56    21    56    1
    57    21    57    1
    58    22    24    1
    59    22    58    1
    60    22    59    1
    61    23    60    1
    62    23    61    1
    63    23    62    1
    64    24    63    1
    65    24    64    1
    66    25    26    1
    67    25    65    1
    68    25    66    1
    69    26    27    1
    70    26    67    1
    71    26    68    1
    72    27    28    1
    73    27    29    1
    74    27    69    1
    75    28    70    1
    76    28    71    1
    77    29    72    1
    78    29    73    1
    79    29    74    1
