@<TRIPOS>MOLECULE
IMPHY013911
 35 37 0 0 0
SMALL
GASTEIGER

@<TRIPOS>ATOM
      1 O           6.0682   -1.0223    0.0000 O.3     1  UNL1       -0.4828
      2 O           4.3198    2.0123    0.0000 O.3     1  UNL1       -0.4942
      3 O           6.0682    1.9777    0.0000 O.2     1  UNL1       -0.2917
      4 O           2.5381   -1.0464    0.0000 O.3     1  UNL1       -0.5065
      5 O          10.3984   -2.5223    0.0000 O.3     1  UNL1       -0.5068
      6 C           6.9343   -0.5223    0.0000 C.3     1  UNL1        0.1322
      7 C           6.9343    0.4777    0.0000 C.3     1  UNL1        0.0520
      8 C           5.2022    0.4777    0.0000 C.ar    1  UNL1        0.1009
      9 C           7.8003   -1.0223    0.0000 C.ar    1  UNL1       -0.0067
     10 C           6.0682    0.9777    0.0000 C.2     1  UNL1        0.1740
     11 C           5.2022   -0.5223    0.0000 C.ar    1  UNL1        0.1389
     12 C           4.3083    1.0124    0.0000 C.ar    1  UNL1        0.1375
     13 C           4.3083   -1.0570    0.0000 C.ar    1  UNL1        0.0225
     14 C           8.6663   -0.5223    0.0000 C.ar    1  UNL1       -0.0516
     15 C           7.8003   -2.0223    0.0000 C.ar    1  UNL1       -0.0516
     16 C           3.4022    0.4985    0.0000 C.ar    1  UNL1        0.0225
     17 C           3.4022   -0.5431    0.0000 C.ar    1  UNL1        0.1238
     18 C           9.5323   -1.0223    0.0000 C.ar    1  UNL1       -0.0198
     19 C           8.6663   -2.5223    0.0000 C.ar    1  UNL1       -0.0198
     20 C           9.5323   -2.0223    0.0000 C.ar    1  UNL1        0.1169
     21 C           3.4597    2.5223    0.0000 C.3     1  UNL1        0.0788
     22 H           7.4712   -0.2123    0.0000 H       1  UNL1        0.0789
     23 H           7.5449    0.3701    0.0000 H       1  UNL1        0.0385
     24 H           7.1463    1.0603    0.0000 H       1  UNL1        0.0385
     25 H           4.3154   -1.6769    0.0000 H       1  UNL1        0.0691
     26 H           8.6663    0.0977    0.0000 H       1  UNL1        0.0623
     27 H           7.2634   -2.3323    0.0000 H       1  UNL1        0.0623
     28 H           2.8665    0.8106    0.0000 H       1  UNL1        0.0691
     29 H          10.0693   -0.7123    0.0000 H       1  UNL1        0.0654
     30 H           8.6663   -3.1423    0.0000 H       1  UNL1        0.0654
     31 H           2.0000   -0.7385    0.0000 H       1  UNL1        0.2921
     32 H           3.7758    3.0556    0.0000 H       1  UNL1        0.0660
     33 H           2.9263    2.8385    0.0000 H       1  UNL1        0.0660
     34 H           3.1435    1.9890    0.0000 H       1  UNL1        0.0660
     35 H          10.9353   -2.2123    0.0000 H       1  UNL1        0.2921
@<TRIPOS>BOND
     1     1     6    1
     2     1    11    1
     3     2    12    1
     4     2    21    1
     5     3    10    2
     6     4    17    1
     7     4    31    1
     8     5    20    1
     9     5    35    1
    10     6     7    1
    11     6     9    1
    12     6    22    1
    13     7    10    1
    14     7    23    1
    15     7    24    1
    16     8    10    1
    17     8    11   ar
    18     8    12   ar
    19     9    14   ar
    20     9    15   ar
    21    11    13   ar
    22    12    16   ar
    23    13    17   ar
    24    13    25    1
    25    14    18   ar
    26    14    26    1
    27    15    19   ar
    28    15    27    1
    29    16    17   ar
    30    16    28    1
    31    18    20   ar
    32    18    29    1
    33    19    20   ar
    34    19    30    1
    35    21    32    1
    36    21    33    1
    37    21    34    1
