@<TRIPOS>MOLECULE
IMPHY008969
 18 20 0 0 0
SMALL
GASTEIGER

@<TRIPOS>ATOM
      1 O           6.3466   -0.5874    0.0000 O.3     1  UNL1       -0.3562
      2 O           2.8833   -2.6315    0.0000 O.co2   1  UNL1       -0.2409
      3 O           2.0000   -1.1416    0.0000 O.co2   1  UNL1       -0.2409
      4 C           5.4803   -0.0869    0.0000 C.3     1  UNL1        0.1399
      5 C           4.6143    0.4131    0.0000 C.3     1  UNL1        0.0338
      6 C           6.3464    0.4131    0.0000 C.3     1  UNL1        0.1176
      7 C           4.6143    1.4131    0.0000 C.3     1  UNL1        0.0028
      8 C           6.3464    1.4131    0.0000 C.3     1  UNL1        0.0296
      9 C           3.7204   -0.1216    0.0000 C.3     1  UNL1        0.0312
     10 C           5.4803    1.9131    0.0000 C.3     1  UNL1        0.0026
     11 C           3.7204    1.9477    0.0000 C.3     1  UNL1        0.0001
     12 C           2.8143    0.3922    0.0000 C.3     1  UNL1        0.0046
     13 C           2.8143    1.4339    0.0000 C.3     1  UNL1        0.0003
     14 C           7.2124    0.9131    0.0000 C.3     1  UNL1        0.0321
     15 C           3.7319    2.9476    0.0000 C.3     1  UNL1        0.0000
     16 C           3.7319   -1.1215    0.0000 C.2     1  UNL1        0.0573
     17 C           2.8717   -1.6315    0.0000 C.2     1  UNL1        0.3838
     18 C           4.6037   -1.6115    0.0000 C.2     1  UNL1        0.0021
@<TRIPOS>BOND
     1     1     4    1
     2     1     6    1
     3     2    17   ar
     4     3    17   ar
     5     4     5    1
     6     4     6    1
     7     5     7    1
     8     5     9    1
     9     6     8    1
    10     6    14    1
    11     7    10    1
    12     7    11    1
    13     8    10    1
    14     9    12    1
    15     9    16    1
    16    11    13    1
    17    11    15    1
    18    12    13    1
    19    16    17    1
    20    16    18    2
