@<TRIPOS>MOLECULE
IMPHY006519
 30 30 0 0 0
SMALL
GASTEIGER

@<TRIPOS>ATOM
      1 O           5.1350    0.1830    0.0000 O.3     1  UNL1       -0.3612
      2 O           2.5369   -0.3170    0.0000 O.3     1  UNL1       -0.3886
      3 C           5.1350    1.1830    0.0000 C.3     1  UNL1        0.0653
      4 C           4.2690   -0.3170    0.0000 C.3     1  UNL1        0.1109
      5 C           3.4030    0.1830    0.0000 C.3     1  UNL1        0.0875
      6 C           4.2690    1.6830    0.0000 C.3     1  UNL1       -0.0218
      7 C           3.4030    1.1830    0.0000 C.3     1  UNL1       -0.0213
      8 C           5.6350    2.0490    0.0000 C.3     1  UNL1       -0.0360
      9 C           6.1350    1.1830    0.0000 C.3     1  UNL1       -0.0360
     10 C           4.7690   -1.1830    0.0000 C.3     1  UNL1       -0.0297
     11 C           3.7690   -1.1830    0.0000 C.2     1  UNL1       -0.0575
     12 C           4.2690   -2.0490    0.0000 C.2     1  UNL1       -0.0999
     13 H           3.4030   -0.4370    0.0000 H       1  UNL1        0.0625
     14 H           4.6675    2.1580    0.0000 H       1  UNL1        0.0294
     15 H           3.8705    2.1580    0.0000 H       1  UNL1        0.0294
     16 H           3.1909    1.7656    0.0000 H       1  UNL1        0.0292
     17 H           2.7924    1.0754    0.0000 H       1  UNL1        0.0292
     18 H           6.1350    0.5630    0.0000 H       1  UNL1        0.0257
     19 H           6.1720    1.7390    0.0000 H       1  UNL1        0.0257
     20 H           6.7550    1.1830    0.0000 H       1  UNL1        0.0257
     21 H           6.1350    1.8030    0.0000 H       1  UNL1        0.0257
     22 H           5.9450    2.5860    0.0000 H       1  UNL1        0.0257
     23 H           5.0981    2.3590    0.0000 H       1  UNL1        0.0257
     24 H           4.2320   -1.4930    0.0000 H       1  UNL1        0.0261
     25 H           5.0790   -1.7200    0.0000 H       1  UNL1        0.0261
     26 H           5.3059   -0.8730    0.0000 H       1  UNL1        0.0261
     27 H           3.1490   -1.1830    0.0000 H       1  UNL1        0.0595
     28 H           2.0000   -0.0070    0.0000 H       1  UNL1        0.2099
     29 H           3.9590   -2.5860    0.0000 H       1  UNL1        0.0533
     30 H           4.8890   -2.0490    0.0000 H       1  UNL1        0.0533
@<TRIPOS>BOND
     1     1     3    1
     2     1     4    1
     3     5     2    1
     4     2    28    1
     5     3     6    1
     6     3     8    1
     7     3     9    1
     8     4     5    1
     9     4    10    1
    10     4    11    1
    11     5     7    1
    12     5    13    1
    13     6     7    1
    14     6    14    1
    15     6    15    1
    16     7    16    1
    17     7    17    1
    18     8    19    1
    19     8    22    1
    20     8    23    1
    21     9    18    1
    22     9    20    1
    23     9    21    1
    24    10    24    1
    25    10    25    1
    26    10    26    1
    27    11    12    2
    28    11    27    1
    29    12    29    1
    30    12    30    1
