@<TRIPOS>MOLECULE
IMPHY002653
 62 66 0 0 0
SMALL
GASTEIGER

@<TRIPOS>ATOM
      1 O           7.4149   -2.4850    0.0000 O.3     1  UNL1       -0.3909
      2 O           9.9229    0.0464    0.0000 O.2     1  UNL1       -0.2920
      3 O           2.0000   -2.5059    0.0000 O.2     1  UNL1       -0.2921
      4 O           9.6033    3.1090    0.0000 O.2     1  UNL1       -0.4707
      5 C           6.5271   -0.9536    0.0000 C.3     1  UNL1        0.0194
      6 C           5.6610   -0.4536    0.0000 C.3     1  UNL1       -0.0204
      7 C           4.7510   -0.9604    0.0000 C.3     1  UNL1       -0.0062
      8 C           4.7430   -2.0020    0.0000 C.3     1  UNL1       -0.0174
      9 C           7.3931    0.5464    0.0000 C.3     1  UNL1        0.0039
     10 C           6.5431   -1.9951    0.0000 C.3     1  UNL1        0.0649
     11 C           7.3931   -0.4536    0.0000 C.2     1  UNL1       -0.0507
     12 C           5.6610    0.5464    0.0000 C.3     1  UNL1       -0.0477
     13 C           5.6451   -2.5228    0.0000 C.3     1  UNL1       -0.0215
     14 C           6.5271    1.0464    0.0000 C.3     1  UNL1       -0.0426
     15 C           3.8076   -2.5518    0.0000 C.3     1  UNL1        0.0311
     16 C           8.3393    0.8511    0.0000 C.3     1  UNL1        0.0585
     17 C           7.3931   -1.4536    0.0000 C.3     1  UNL1       -0.0532
     18 C           4.7587    0.0395    0.0000 C.3     1  UNL1       -0.0555
     19 C           3.8242   -0.3963    0.0000 C.2     1  UNL1       -0.0742
     20 C           8.3393   -0.7583    0.0000 C.2     1  UNL1       -0.0182
     21 C           7.3931    1.5464    0.0000 C.3     1  UNL1       -0.0548
     22 C           8.9229    0.0464    0.0000 C.2     1  UNL1        0.1643
     23 C           2.8680   -2.0093    0.0000 C.2     1  UNL1        0.1617
     24 C           2.8763   -0.9243    0.0000 C.2     1  UNL1       -0.0221
     25 C           3.3109   -3.4197    0.0000 C.3     1  UNL1       -0.0525
     26 C           4.3109   -3.4158    0.0000 C.3     1  UNL1       -0.0525
     27 C           8.6500    1.8017    0.0000 C.ar    1  UNL1        0.0017
     28 C           8.0636    2.6117    0.0000 C.ar    1  UNL1       -0.0200
     29 C           9.6016    2.1090    0.0000 C.ar    1  UNL1        0.0955
     30 C           8.6528    3.4197    0.0000 C.ar    1  UNL1        0.0920
     31 H           6.3972   -0.0286    0.0000 H       1  UNL1        0.0318
     32 H           4.7463   -2.8520    0.0000 H       1  UNL1        0.0319
     33 H           6.5491   -2.6151    0.0000 H       1  UNL1        0.0602
     34 H           5.4490    1.1290    0.0000 H       1  UNL1        0.0269
     35 H           5.0504    0.4388    0.0000 H       1  UNL1        0.0269
     36 H           5.2478   -2.9988    0.0000 H       1  UNL1        0.0294
     37 H           6.0460   -2.9957    0.0000 H       1  UNL1        0.0294
     38 H           6.9256    1.5214    0.0000 H       1  UNL1        0.0274
     39 H           6.1285    1.5214    0.0000 H       1  UNL1        0.0274
     40 H           8.9518    0.9473    0.0000 H       1  UNL1        0.0439
     41 H           7.0831   -1.9905    0.0000 H       1  UNL1        0.0239
     42 H           7.9300   -1.7636    0.0000 H       1  UNL1        0.0239
     43 H           7.7031   -0.9166    0.0000 H       1  UNL1        0.0239
     44 H           5.3787    0.0348    0.0000 H       1  UNL1        0.0238
     45 H           4.7635    0.6595    0.0000 H       1  UNL1        0.0238
     46 H           4.1388    0.0443    0.0000 H       1  UNL1        0.0238
     47 H           3.8361    0.2235    0.0000 H       1  UNL1        0.0579
     48 H           8.5319   -1.3476    0.0000 H       1  UNL1        0.0652
     49 H           8.0131    1.5464    0.0000 H       1  UNL1        0.0238
     50 H           7.3931    2.1664    0.0000 H       1  UNL1        0.0238
     51 H           6.7731    1.5464    0.0000 H       1  UNL1        0.0238
     52 H           2.3430   -0.6081    0.0000 H       1  UNL1        0.0649
     53 H           2.7728   -3.1118    0.0000 H       1  UNL1        0.0239
     54 H           3.0030   -3.9578    0.0000 H       1  UNL1        0.0239
     55 H           3.8490   -3.7276    0.0000 H       1  UNL1        0.0239
     56 H           3.7752   -3.7279    0.0000 H       1  UNL1        0.0239
     57 H           4.6230   -3.9516    0.0000 H       1  UNL1        0.0239
     58 H           4.8466   -3.1038    0.0000 H       1  UNL1        0.0239
     59 H           7.4220   -3.1050    0.0000 H       1  UNL1        0.2098
     60 H           7.4436    2.6128    0.0000 H       1  UNL1        0.0652
     61 H          10.1025    1.7438    0.0000 H       1  UNL1        0.1032
     62 H           8.4622    4.0097    0.0000 H       1  UNL1        0.1029
@<TRIPOS>BOND
     1    10     1    1
     2     1    59    1
     3     2    22    2
     4     3    23    2
     5     4    29   ar
     6     4    30   ar
     7     5     6    1
     8     5    10    1
     9     5    11    1
    10     5    17    1
    11     6     7    1
    12     6    12    1
    13     6    31    1
    14     7     8    1
    15     7    18    1
    16     7    19    1
    17     8    13    1
    18     8    15    1
    19     8    32    1
    20     9    11    1
    21     9    14    1
    22     9    16    1
    23     9    21    1
    24    10    13    1
    25    10    33    1
    26    11    20    2
    27    12    14    1
    28    12    34    1
    29    12    35    1
    30    13    36    1
    31    13    37    1
    32    14    38    1
    33    14    39    1
    34    15    23    1
    35    15    25    1
    36    15    26    1
    37    16    22    1
    38    16    27    1
    39    16    40    1
    40    17    41    1
    41    17    42    1
    42    17    43    1
    43    18    44    1
    44    18    45    1
    45    18    46    1
    46    19    24    2
    47    19    47    1
    48    20    22    1
    49    20    48    1
    50    21    49    1
    51    21    50    1
    52    21    51    1
    53    23    24    1
    54    24    52    1
    55    25    53    1
    56    25    54    1
    57    25    55    1
    58    26    56    1
    59    26    57    1
    60    26    58    1
    61    27    28   ar
    62    27    29   ar
    63    28    30   ar
    64    28    60    1
    65    29    61    1
    66    30    62    1
