@<TRIPOS>MOLECULE
IMPHY007972
 62 63 0 0 0
SMALL
GASTEIGER

@<TRIPOS>ATOM
      1 O           5.1350    0.5600    0.0000 O.3     1  UNL1       -0.5056
      2 O           8.5991   -1.4400    0.0000 O.3     1  UNL1       -0.4914
      3 O           8.5991    0.5600    0.0000 O.3     1  UNL1       -0.5030
      4 O           4.2690   -0.9400    0.0000 O.2     1  UNL1       -0.2872
      5 O           2.5369   -3.9400    0.0000 O.3     1  UNL1       -0.5062
      6 O           6.0010   -5.9400    0.0000 O.3     1  UNL1       -0.5067
      7 C           6.8671    1.5600    0.0000 C.3     1  UNL1       -0.0022
      8 C           8.5991    3.5600    0.0000 C.3     1  UNL1       -0.0286
      9 C           7.7331    3.0600    0.0000 C.2     1  UNL1       -0.0759
     10 C           6.8671    0.5600    0.0000 C.ar    1  UNL1        0.0434
     11 C           7.7331    2.0600    0.0000 C.2     1  UNL1       -0.0805
     12 C           8.5991    4.5600    0.0000 C.3     1  UNL1       -0.0308
     13 C           6.0010    0.0600    0.0000 C.ar    1  UNL1        0.1348
     14 C           7.7331    0.0600    0.0000 C.ar    1  UNL1        0.1655
     15 C           6.0010   -0.9400    0.0000 C.ar    1  UNL1        0.0670
     16 C           6.8671    3.5600    0.0000 C.3     1  UNL1       -0.0438
     17 C           7.7331   -0.9400    0.0000 C.ar    1  UNL1        0.1625
     18 C           6.8671   -1.4400    0.0000 C.ar    1  UNL1       -0.0020
     19 C           9.4651    5.0600    0.0000 C.2     1  UNL1       -0.0850
     20 C           9.4651    6.0600    0.0000 C.2     1  UNL1       -0.0796
     21 C           5.1350   -1.4400    0.0000 C.2     1  UNL1        0.1897
     22 C          10.3312    6.5600    0.0000 C.3     1  UNL1       -0.0440
     23 C           8.5991    6.5600    0.0000 C.3     1  UNL1       -0.0440
     24 C           5.1350   -2.4400    0.0000 C.2     1  UNL1       -0.0136
     25 C           4.2690   -2.9400    0.0000 C.2     1  UNL1       -0.0474
     26 C           4.2690   -3.9400    0.0000 C.ar    1  UNL1        0.0200
     27 C           8.5991   -2.4400    0.0000 C.3     1  UNL1        0.0790
     28 C           3.4030   -4.4400    0.0000 C.ar    1  UNL1        0.1242
     29 C           5.1350   -4.4400    0.0000 C.ar    1  UNL1       -0.0095
     30 C           5.1350   -5.4400    0.0000 C.ar    1  UNL1        0.1176
     31 C           3.4030   -5.4400    0.0000 C.ar    1  UNL1       -0.0161
     32 C           4.2690   -5.9400    0.0000 C.ar    1  UNL1       -0.0167
     33 H           6.6550    2.1426    0.0000 H       1  UNL1        0.0358
     34 H           6.2565    1.4523    0.0000 H       1  UNL1        0.0358
     35 H           8.8112    2.9774    0.0000 H       1  UNL1        0.0313
     36 H           9.2097    3.6677    0.0000 H       1  UNL1        0.0313
     37 H           8.2700    1.7500    0.0000 H       1  UNL1        0.0575
     38 H           8.3871    5.1426    0.0000 H       1  UNL1        0.0310
     39 H           7.9885    4.4523    0.0000 H       1  UNL1        0.0310
     40 H           7.1771    4.0969    0.0000 H       1  UNL1        0.0274
     41 H           6.3301    3.8700    0.0000 H       1  UNL1        0.0274
     42 H           6.5571    3.0231    0.0000 H       1  UNL1        0.0274
     43 H           6.8671   -2.0600    0.0000 H       1  UNL1        0.0663
     44 H          10.0021    4.7500    0.0000 H       1  UNL1        0.0572
     45 H           5.1350    1.1800    0.0000 H       1  UNL1        0.2922
     46 H           9.1360    0.2500    0.0000 H       1  UNL1        0.2923
     47 H          10.6412    6.0231    0.0000 H       1  UNL1        0.0274
     48 H           8.9091    7.0969    0.0000 H       1  UNL1        0.0274
     49 H           8.0622    6.8700    0.0000 H       1  UNL1        0.0274
     50 H           8.2891    6.0231    0.0000 H       1  UNL1        0.0274
     51 H          10.8681    6.8700    0.0000 H       1  UNL1        0.0274
     52 H          10.0212    7.0969    0.0000 H       1  UNL1        0.0274
     53 H           5.6720   -2.7500    0.0000 H       1  UNL1        0.0656
     54 H           3.7320   -2.6300    0.0000 H       1  UNL1        0.0626
     55 H           7.9791   -2.4400    0.0000 H       1  UNL1        0.0660
     56 H           8.5991   -3.0600    0.0000 H       1  UNL1        0.0660
     57 H           9.2191   -2.4400    0.0000 H       1  UNL1        0.0660
     58 H           5.6720   -4.1300    0.0000 H       1  UNL1        0.0661
     59 H           2.8660   -5.7500    0.0000 H       1  UNL1        0.0655
     60 H           4.2690   -6.5600    0.0000 H       1  UNL1        0.0655
     61 H           2.0000   -4.2500    0.0000 H       1  UNL1        0.2922
     62 H           6.0010   -6.5600    0.0000 H       1  UNL1        0.2921
@<TRIPOS>BOND
     1     1    13    1
     2     1    45    1
     3     2    17    1
     4     2    27    1
     5     3    14    1
     6     3    46    1
     7     4    21    2
     8     5    28    1
     9     5    61    1
    10     6    30    1
    11     6    62    1
    12     7    10    1
    13     7    11    1
    14     7    33    1
    15     7    34    1
    16     8     9    1
    17     8    12    1
    18     8    35    1
    19     8    36    1
    20     9    11    2
    21     9    16    1
    22    10    13   ar
    23    10    14   ar
    24    11    37    1
    25    12    19    1
    26    12    38    1
    27    12    39    1
    28    13    15   ar
    29    14    17   ar
    30    15    18   ar
    31    15    21    1
    32    16    40    1
    33    16    41    1
    34    16    42    1
    35    17    18   ar
    36    18    43    1
    37    19    20    2
    38    19    44    1
    39    20    22    1
    40    20    23    1
    41    21    24    1
    42    22    47    1
    43    22    51    1
    44    22    52    1
    45    23    48    1
    46    23    49    1
    47    23    50    1
    48    24    25    2
    49    24    53    1
    50    25    26    1
    51    25    54    1
    52    26    28   ar
    53    26    29   ar
    54    27    55    1
    55    27    56    1
    56    27    57    1
    57    28    31   ar
    58    29    30   ar
    59    29    58    1
    60    30    32   ar
    61    31    32   ar
    62    31    59    1
    63    32    60    1
