@<TRIPOS>MOLECULE
IMPHY015847
 84 88 0 0 0
SMALL
GASTEIGER

@<TRIPOS>ATOM
      1 O           4.7789    0.9327    0.0000 O.3     1  UNL1       -0.3837
      2 O           3.8493   -2.6090    0.0000 O.3     1  UNL1       -0.3824
      3 O          10.9848    3.5771    0.0000 O.2     1  UNL1       -0.2968
      4 C           6.5109   -0.0673    0.0000 C.3     1  UNL1        0.0065
      5 C           7.3770    0.4327    0.0000 C.3     1  UNL1       -0.0170
      6 C           5.6449    0.4327    0.0000 C.3     1  UNL1        0.0936
      7 C           7.3770    1.4327    0.0000 C.3     1  UNL1       -0.0111
      8 C           4.7349   -0.0741    0.0000 C.3     1  UNL1        0.0026
      9 C           8.2709    1.9674    0.0000 C.3     1  UNL1       -0.0212
     10 C           4.7269   -1.1157    0.0000 C.3     1  UNL1        0.0001
     11 C           6.5270   -1.1088    0.0000 C.3     1  UNL1       -0.0436
     12 C           9.1770    1.4535    0.0000 C.3     1  UNL1       -0.0232
     13 C           8.2709   -0.1020    0.0000 C.3     1  UNL1       -0.0462
     14 C           5.6290   -1.6366    0.0000 C.3     1  UNL1       -0.0443
     15 C           3.8081    0.4899    0.0000 C.3     1  UNL1       -0.0350
     16 C           9.1770    0.4119    0.0000 C.3     1  UNL1       -0.0483
     17 C           5.6449    1.4327    0.0000 C.2     1  UNL1       -0.0557
     18 C           6.5109    1.9327    0.0000 C.2     1  UNL1       -0.0811
     19 C           7.1537   -0.8333    0.0000 C.3     1  UNL1       -0.0561
     20 C           3.7914   -1.6655    0.0000 C.3     1  UNL1       -0.0447
     21 C           7.7191   -0.5070    0.0000 C.3     1  UNL1       -0.0584
     22 C          10.1208    1.9888    0.0000 C.3     1  UNL1        0.0267
     23 C           8.2458    3.0521    0.0000 C.3     1  UNL1       -0.0401
     24 C           2.8602   -0.0380    0.0000 C.3     1  UNL1       -0.0409
     25 C           2.8518   -1.1230    0.0000 C.3     1  UNL1       -0.0496
     26 C           4.7192   -2.1157    0.0000 C.3     1  UNL1        0.0533
     27 C           7.4010    2.4607    0.0000 C.3     1  UNL1       -0.0587
     28 C           9.1770    3.6090    0.0000 C.3     1  UNL1        0.0069
     29 C          10.1208    3.0738    0.0000 C.2     1  UNL1        0.1392
     30 C           3.8273    1.4897    0.0000 C.3     1  UNL1       -0.0618
     31 C          11.1207    1.9849    0.0000 C.3     1  UNL1       -0.0528
     32 C          10.6174    1.1208    0.0000 C.3     1  UNL1       -0.0528
     33 C           2.0000    0.4720    0.0000 C.3     1  UNL1       -0.0622
     34 C           3.8416   -3.6090    0.0000 C.3     1  UNL1        0.0365
     35 H           8.1163    1.0134    0.0000 H       1  UNL1        0.0354
     36 H           5.4661   -0.5076    0.0000 H       1  UNL1        0.0341
     37 H           6.7450   -1.6892    0.0000 H       1  UNL1        0.0272
     38 H           7.1361   -0.9933    0.0000 H       1  UNL1        0.0272
     39 H           9.9114    1.0257    0.0000 H       1  UNL1        0.0315
     40 H           7.8663   -0.5717    0.0000 H       1  UNL1        0.0271
     41 H           8.6645   -0.5810    0.0000 H       1  UNL1        0.0271
     42 H           5.2316   -2.1125    0.0000 H       1  UNL1        0.0272
     43 H           6.0299   -2.1094    0.0000 H       1  UNL1        0.0272
     44 H           4.3515    0.7885    0.0000 H       1  UNL1        0.0305
     45 H           9.3860   -0.1718    0.0000 H       1  UNL1        0.0269
     46 H           9.7878    0.5180    0.0000 H       1  UNL1        0.0269
     47 H           5.1080    1.7427    0.0000 H       1  UNL1        0.0598
     48 H           6.5109    2.5527    0.0000 H       1  UNL1        0.0573
     49 H           6.6788   -1.2319    0.0000 H       1  UNL1        0.0236
     50 H           7.5522   -1.3083    0.0000 H       1  UNL1        0.0236
     51 H           7.6287   -0.4348    0.0000 H       1  UNL1        0.0236
     52 H           3.3942   -2.1414    0.0000 H       1  UNL1        0.0271
     53 H           4.1924   -2.1384    0.0000 H       1  UNL1        0.0271
     54 H           7.1365   -0.7191    0.0000 H       1  UNL1        0.0235
     55 H           7.9312   -1.0895    0.0000 H       1  UNL1        0.0235
     56 H           8.3017   -0.2948    0.0000 H       1  UNL1        0.0235
     57 H           8.0233    3.6308    0.0000 H       1  UNL1        0.0275
     58 H           7.6376    2.9319    0.0000 H       1  UNL1        0.0275
     59 H           2.8686    0.5819    0.0000 H       1  UNL1        0.0301
     60 H           2.2418   -1.0122    0.0000 H       1  UNL1        0.0268
     61 H           2.6383   -1.7050    0.0000 H       1  UNL1        0.0268
     62 H           4.9267   -2.6999    0.0000 H       1  UNL1        0.0565
     63 H           5.3306   -2.0128    0.0000 H       1  UNL1        0.0565
     64 H           7.7069    3.0000    0.0000 H       1  UNL1        0.0235
     65 H           6.8617    2.7665    0.0000 H       1  UNL1        0.0235
     66 H           7.0952    1.9214    0.0000 H       1  UNL1        0.0235
     67 H           4.7789    1.5527    0.0000 H       1  UNL1        0.2106
     68 H           9.5706    4.0880    0.0000 H       1  UNL1        0.0342
     69 H           8.7724    4.0788    0.0000 H       1  UNL1        0.0342
     70 H           4.4472    1.4778    0.0000 H       1  UNL1        0.0233
     71 H           3.8393    2.1096    0.0000 H       1  UNL1        0.0233
     72 H           3.2075    1.5017    0.0000 H       1  UNL1        0.0233
     73 H          11.1184    1.3649    0.0000 H       1  UNL1        0.0239
     74 H          11.7407    1.9825    0.0000 H       1  UNL1        0.0239
     75 H          11.1231    2.6049    0.0000 H       1  UNL1        0.0239
     76 H          10.0793    0.8129    0.0000 H       1  UNL1        0.0239
     77 H          10.9253    0.5827    0.0000 H       1  UNL1        0.0239
     78 H          11.1555    1.4287    0.0000 H       1  UNL1        0.0239
     79 H           2.3162    1.0053    0.0000 H       1  UNL1        0.0233
     80 H           1.4667    0.7882    0.0000 H       1  UNL1        0.0233
     81 H           1.6838   -0.0613    0.0000 H       1  UNL1        0.0233
     82 H           3.2216   -3.6042    0.0000 H       1  UNL1        0.0523
     83 H           3.8368   -4.2290    0.0000 H       1  UNL1        0.0523
     84 H           4.4616   -3.6138    0.0000 H       1  UNL1        0.0523
@<TRIPOS>BOND
     1     6     1    1
     2     1    67    1
     3     2    26    1
     4     2    34    1
     5     3    29    2
     6     4     5    1
     7     4     6    1
     8     4    11    1
     9     4    19    1
    10     5     7    1
    11     5    13    1
    12     5    21    1
    13     6     8    1
    14     6    17    1
    15     7     9    1
    16     7    18    1
    17     7    35    1
    18     8    10    1
    19     8    15    1
    20     8    36    1
    21     9    12    1
    22     9    23    1
    23     9    27    1
    24    10    14    1
    25    10    20    1
    26    10    26    1
    27    11    14    1
    28    11    37    1
    29    11    38    1
    30    12    16    1
    31    12    22    1
    32    12    39    1
    33    13    16    1
    34    13    40    1
    35    13    41    1
    36    14    42    1
    37    14    43    1
    38    15    24    1
    39    15    30    1
    40    15    44    1
    41    16    45    1
    42    16    46    1
    43    17    18    2
    44    17    47    1
    45    18    48    1
    46    19    49    1
    47    19    50    1
    48    19    51    1
    49    20    25    1
    50    20    52    1
    51    20    53    1
    52    21    54    1
    53    21    55    1
    54    21    56    1
    55    22    29    1
    56    22    31    1
    57    22    32    1
    58    23    28    1
    59    23    57    1
    60    23    58    1
    61    24    25    1
    62    24    33    1
    63    24    59    1
    64    25    60    1
    65    25    61    1
    66    26    62    1
    67    26    63    1
    68    27    64    1
    69    27    65    1
    70    27    66    1
    71    28    29    1
    72    28    68    1
    73    28    69    1
    74    30    70    1
    75    30    71    1
    76    30    72    1
    77    31    73    1
    78    31    74    1
    79    31    75    1
    80    32    76    1
    81    32    77    1
    82    32    78    1
    83    33    79    1
    84    33    80    1
    85    33    81    1
    86    34    82    1
    87    34    83    1
    88    34    84    1
