@<TRIPOS>MOLECULE
IMPHY000896
 52 55 0 0 0
SMALL
GASTEIGER

@<TRIPOS>ATOM
      1 O           8.6823    2.9868    0.0000 O.3     1  UNL1       -0.3396
      2 O           8.6663   -0.0824    0.0000 O.3     1  UNL1       -0.4512
      3 O           6.9343    0.9176    0.0000 O.3     1  UNL1       -0.4488
      4 O          10.4365    0.9144    0.0000 O.3     1  UNL1       -0.3853
      5 O           6.9125    2.9490    0.0000 O.3     1  UNL1       -0.3641
      6 O          10.4562    3.9627    0.0000 O.3     1  UNL1       -0.3924
      7 O           7.8003   -1.5824    0.0000 O.2     1  UNL1       -0.2449
      8 O           6.0682    2.4176    0.0000 O.2     1  UNL1       -0.2449
      9 O           4.9502   -2.5028    0.0000 O.3     1  UNL1       -0.5028
     10 O           4.3198   -1.6170    0.0000 O.3     1  UNL1       -0.5028
     11 O           9.3312   -2.6512    0.0000 O.3     1  UNL1       -0.5032
     12 O           7.0944   -3.9426    0.0000 O.3     1  UNL1       -0.5009
     13 O           2.5381   -0.6066    0.0000 O.3     1  UNL1       -0.5009
     14 O           2.5381    1.4417    0.0000 O.3     1  UNL1       -0.5032
     15 C           8.6663    0.9176    0.0000 C.3     1  UNL1        0.1730
     16 C           9.5763    1.4244    0.0000 C.3     1  UNL1        0.1240
     17 C           7.8003    1.4176    0.0000 C.3     1  UNL1        0.1927
     18 C           9.5844    2.4660    0.0000 C.3     1  UNL1        0.1141
     19 C           7.7842    2.4591    0.0000 C.3     1  UNL1        0.1979
     20 C          10.4523    2.9627    0.0000 C.3     1  UNL1        0.0731
     21 C           7.8003   -0.5824    0.0000 C.2     1  UNL1        0.3405
     22 C           6.0682    1.4176    0.0000 C.2     1  UNL1        0.3406
     23 C           6.9343   -0.0824    0.0000 C.ar    1  UNL1        0.0740
     24 C           5.2022    0.9176    0.0000 C.ar    1  UNL1        0.0740
     25 C           6.0682   -0.5824    0.0000 C.ar    1  UNL1        0.0458
     26 C           5.2022   -0.0824    0.0000 C.ar    1  UNL1        0.0458
     27 C           8.3456   -0.6595    0.0000 C.ar    1  UNL1       -0.0017
     28 C           5.8624   -2.0932    0.0000 C.ar    1  UNL1        0.1708
     29 C           4.3083   -0.6171    0.0000 C.ar    1  UNL1        0.1708
     30 C           4.3083    1.4522    0.0000 C.ar    1  UNL1       -0.0017
     31 C           8.4488   -2.1808    0.0000 C.ar    1  UNL1        0.1628
     32 C           7.1283   -2.9432    0.0000 C.ar    1  UNL1        0.2012
     33 C           3.4022   -0.1032    0.0000 C.ar    1  UNL1        0.2012
     34 C           3.4022    0.9384    0.0000 C.ar    1  UNL1        0.1628
     35 H           9.2009    0.6035    0.0000 H       1  UNL1        0.0801
     36 H           9.5680    0.8045    0.0000 H       1  UNL1        0.0658
     37 H           7.2610    1.7234    0.0000 H       1  UNL1        0.0824
     38 H           9.5856    3.0860    0.0000 H       1  UNL1        0.0647
     39 H           7.7783    3.0791    0.0000 H       1  UNL1        0.0948
     40 H          10.6621    2.3793    0.0000 H       1  UNL1        0.0584
     41 H          11.0633    3.0680    0.0000 H       1  UNL1        0.0584
     42 H          10.9770    1.2182    0.0000 H       1  UNL1        0.2101
     43 H           6.9053    3.5690    0.0000 H       1  UNL1        0.2126
     44 H          10.9943    4.2706    0.0000 H       1  UNL1        0.2095
     45 H           8.8483   -0.2967    0.0000 H       1  UNL1        0.0664
     46 H           4.3154    2.0722    0.0000 H       1  UNL1        0.0664
     47 H           4.8873   -3.1196    0.0000 H       1  UNL1        0.2923
     48 H           3.7865   -1.9332    0.0000 H       1  UNL1        0.2923
     49 H           7.6206   -4.2706    0.0000 H       1  UNL1        0.2924
     50 H           9.3522   -3.2708    0.0000 H       1  UNL1        0.2923
     51 H           2.0000   -0.2986    0.0000 H       1  UNL1        0.2924
     52 H           2.5405    2.0617    0.0000 H       1  UNL1        0.2923
@<TRIPOS>BOND
     1     1    18    1
     2     1    19    1
     3     2    15    1
     4     2    21    1
     5     3    17    1
     6     3    22    1
     7     4    16    1
     8     4    42    1
     9     5    19    1
    10     5    43    1
    11     6    20    1
    12     6    44    1
    13     7    21    2
    14     8    22    2
    15     9    28    1
    16     9    47    1
    17    10    29    1
    18    10    48    1
    19    11    31    1
    20    11    50    1
    21    12    32    1
    22    12    49    1
    23    13    33    1
    24    13    51    1
    25    14    34    1
    26    14    52    1
    27    15    16    1
    28    15    17    1
    29    15    35    1
    30    16    18    1
    31    16    36    1
    32    17    19    1
    33    17    37    1
    34    18    20    1
    35    18    38    1
    36    19    39    1
    37    20    40    1
    38    20    41    1
    39    21    23    1
    40    22    24    1
    41    23    25   ar
    42    23    27   ar
    43    24    26   ar
    44    24    30   ar
    45    25    26    1
    46    25    28   ar
    47    26    29   ar
    48    27    31   ar
    49    27    45    1
    50    28    32   ar
    51    29    33   ar
    52    30    34   ar
    53    30    46    1
    54    31    32   ar
    55    33    34   ar
