@<TRIPOS>MOLECULE
IMPHY008821
 20 21 0 0 0
SMALL
GASTEIGER

@<TRIPOS>ATOM
      1 O           6.3580   -0.3751    0.0000 O.2     1  UNL1       -0.4208
      2 O           2.8660   -0.3405    0.0000 O.3     1  UNL1       -0.4712
      3 O           4.5981    2.6595    0.0000 O.3     1  UNL1       -0.4712
      4 O           8.1282   -0.3646    0.0000 O.2     1  UNL1       -0.2445
      5 C           4.5981   -0.3405    0.0000 C.ar    1  UNL1        0.0685
      6 C           5.2821   -2.2198    0.0000 C.3     1  UNL1        0.0220
      7 C           5.4641    0.1595    0.0000 C.ar    1  UNL1        0.1544
      8 C           5.4641    1.1595    0.0000 C.ar    1  UNL1        0.0690
      9 C           3.7321    0.1595    0.0000 C.ar    1  UNL1        0.1446
     10 C           3.9554   -1.1066    0.0000 C.2     1  UNL1        0.0015
     11 C           4.2973   -2.0462    0.0000 C.2     1  UNL1       -0.0263
     12 C           4.5981    1.6595    0.0000 C.ar    1  UNL1        0.1446
     13 C           3.7321    1.1595    0.0000 C.ar    1  UNL1        0.0740
     14 C           5.2821   -1.2198    0.0000 C.3     1  UNL1        0.0047
     15 C           5.6241   -3.1595    0.0000 C.3     1  UNL1        0.0047
     16 C           6.3580    1.6942    0.0000 C.ar    1  UNL1        0.0127
     17 C           7.2641    1.1804    0.0000 C.ar    1  UNL1        0.0825
     18 C           7.2641    0.1387    0.0000 C.ar    1  UNL1        0.3459
     19 C           2.0000    0.1595    0.0000 C.3     1  UNL1        0.2525
     20 C           3.7321    3.1595    0.0000 C.3     1  UNL1        0.2525
@<TRIPOS>BOND
     1     1     7   ar
     2     1    18   ar
     3     2     9    1
     4     2    19    1
     5     3    12    1
     6     3    20    1
     7     4    18    2
     8     5     7   ar
     9     5     9   ar
    10     5    10    1
    11     6    11    1
    12     6    14    1
    13     6    15    1
    14     7     8   ar
    15     8    12   ar
    16     8    16   ar
    17     9    13   ar
    18    10    11    2
    19    12    13   ar
    20    16    17   ar
    21    17    18   ar
