@<TRIPOS>MOLECULE
IMPHY017823
 42 43 0 0 0
SMALL
GASTEIGER

@<TRIPOS>ATOM
      1 O           4.3466    2.2686    0.0000 O.3     1  UNL1       -0.3885
      2 C           5.3589    0.6753    0.0000 C.3     1  UNL1       -0.0059
      3 C           5.3639   -0.3247    0.0000 C.3     1  UNL1       -0.0146
      4 C           6.3116   -0.6247    0.0000 C.3     1  UNL1       -0.0373
      5 C           4.5740    1.2948    0.0000 C.3     1  UNL1        0.0670
      6 C           6.3036    0.9847    0.0000 C.3     1  UNL1       -0.0468
      7 C           6.8912    0.1829    0.0000 C.3     1  UNL1       -0.0496
      8 C           3.6002    1.0674    0.0000 C.3     1  UNL1       -0.0203
      9 C           4.5852   -0.9521    0.0000 C.2     1  UNL1       -0.0808
     10 C           3.1708    0.1643    0.0000 C.3     1  UNL1       -0.0289
     11 C           3.6092   -0.7345    0.0000 C.2     1  UNL1       -0.0705
     12 C           6.6270   -1.5737    0.0000 C.3     1  UNL1       -0.0619
     13 C           5.1936    2.0798    0.0000 C.3     1  UNL1       -0.0358
     14 C           2.9896   -1.5194    0.0000 C.3     1  UNL1       -0.0256
     15 C           2.0000   -1.3753    0.0000 C.3     1  UNL1       -0.0590
     16 C           3.3595   -2.4484    0.0000 C.3     1  UNL1       -0.0590
     17 H           5.4674    1.2857    0.0000 H       1  UNL1        0.0334
     18 H           5.4784   -0.9341    0.0000 H       1  UNL1        0.0349
     19 H           6.9246   -0.7179    0.0000 H       1  UNL1        0.0304
     20 H           6.8394    1.2966    0.0000 H       1  UNL1        0.0269
     21 H           6.0497    1.5503    0.0000 H       1  UNL1        0.0269
     22 H           7.3541   -0.2295    0.0000 H       1  UNL1        0.0268
     23 H           7.3500    0.5999    0.0000 H       1  UNL1        0.0268
     24 H           3.5971    1.6874    0.0000 H       1  UNL1        0.0296
     25 H           2.9950    1.2024    0.0000 H       1  UNL1        0.0296
     26 H           4.7261   -1.5559    0.0000 H       1  UNL1        0.0575
     27 H           2.6841    0.5485    0.0000 H       1  UNL1        0.0311
     28 H           2.6880   -0.2246    0.0000 H       1  UNL1        0.0311
     29 H           6.0386   -1.7692    0.0000 H       1  UNL1        0.0233
     30 H           6.8226   -2.1621    0.0000 H       1  UNL1        0.0233
     31 H           7.2154   -1.3782    0.0000 H       1  UNL1        0.0233
     32 H           5.6802    1.6956    0.0000 H       1  UNL1        0.0257
     33 H           5.5777    2.5664    0.0000 H       1  UNL1        0.0257
     34 H           4.7069    2.4639    0.0000 H       1  UNL1        0.0257
     35 H           2.7602   -0.9434    0.0000 H       1  UNL1        0.0340
     36 H           3.7532    2.4484    0.0000 H       1  UNL1        0.2102
     37 H           2.0894   -0.7618    0.0000 H       1  UNL1        0.0235
     38 H           1.3865   -1.2859    0.0000 H       1  UNL1        0.0235
     39 H           1.9106   -1.9888    0.0000 H       1  UNL1        0.0235
     40 H           2.7835   -2.6778    0.0000 H       1  UNL1        0.0235
     41 H           3.5889   -3.0244    0.0000 H       1  UNL1        0.0235
     42 H           3.9356   -2.2191    0.0000 H       1  UNL1        0.0235
@<TRIPOS>BOND
     1     1     5    1
     2     1    36    1
     3     2     3    1
     4     2     5    1
     5     2     6    1
     6     2    17    1
     7     3     4    1
     8     3     9    1
     9     3    18    1
    10     4     7    1
    11     4    12    1
    12     4    19    1
    13     5     8    1
    14     5    13    1
    15     6     7    1
    16     6    20    1
    17     6    21    1
    18     7    22    1
    19     7    23    1
    20     8    10    1
    21     8    24    1
    22     8    25    1
    23     9    11    2
    24     9    26    1
    25    10    11    1
    26    10    27    1
    27    10    28    1
    28    11    14    1
    29    12    29    1
    30    12    30    1
    31    12    31    1
    32    13    32    1
    33    13    33    1
    34    13    34    1
    35    14    15    1
    36    14    16    1
    37    14    35    1
    38    15    37    1
    39    15    38    1
    40    15    39    1
    41    16    40    1
    42    16    41    1
    43    16    42    1
