@<TRIPOS>MOLECULE
IMPHY016400
 28 29 0 0 0
SMALL
GASTEIGER

@<TRIPOS>ATOM
      1 C           3.7320   -0.5000    0.0000 C.ar    1  UNL1       -0.0176
      2 C           3.7320    0.5000    0.0000 C.ar    1  UNL1       -0.0176
      3 C           2.8660   -1.0000    0.0000 C.ar    1  UNL1       -0.0511
      4 C           4.5981    1.0000    0.0000 C.ar    1  UNL1       -0.0511
      5 C           2.8660   -2.0000    0.0000 C.ar    1  UNL1       -0.0499
      6 C           4.5981    2.0000    0.0000 C.ar    1  UNL1       -0.0499
      7 C           4.5981   -1.0000    0.0000 C.ar    1  UNL1       -0.0540
      8 C           2.8660    1.0000    0.0000 C.ar    1  UNL1       -0.0540
      9 C           3.7320   -2.5000    0.0000 C.ar    1  UNL1       -0.0588
     10 C           3.7320    2.5000    0.0000 C.ar    1  UNL1       -0.0588
     11 C           4.5981   -2.0000    0.0000 C.ar    1  UNL1       -0.0609
     12 C           2.8660    2.0000    0.0000 C.ar    1  UNL1       -0.0609
     13 C           2.0000   -2.5000    0.0000 C.3     1  UNL1       -0.0397
     14 C           5.4641    2.5000    0.0000 C.3     1  UNL1       -0.0397
     15 H           2.3291   -0.6900    0.0000 H       1  UNL1        0.0626
     16 H           5.1350    0.6900    0.0000 H       1  UNL1        0.0626
     17 H           5.1350   -0.6900    0.0000 H       1  UNL1        0.0624
     18 H           2.3291    0.6900    0.0000 H       1  UNL1        0.0624
     19 H           3.7320   -3.1200    0.0000 H       1  UNL1        0.0620
     20 H           3.7320    3.1200    0.0000 H       1  UNL1        0.0620
     21 H           5.1350   -2.3100    0.0000 H       1  UNL1        0.0618
     22 H           2.3291    2.3100    0.0000 H       1  UNL1        0.0618
     23 H           1.6900   -1.9631    0.0000 H       1  UNL1        0.0278
     24 H           1.4631   -2.8100    0.0000 H       1  UNL1        0.0278
     25 H           2.3100   -3.0369    0.0000 H       1  UNL1        0.0278
     26 H           5.7741    1.9631    0.0000 H       1  UNL1        0.0278
     27 H           6.0010    2.8100    0.0000 H       1  UNL1        0.0278
     28 H           5.1541    3.0369    0.0000 H       1  UNL1        0.0278
@<TRIPOS>BOND
     1     1     2    1
     2     1     3   ar
     3     1     7   ar
     4     2     4   ar
     5     2     8   ar
     6     3     5   ar
     7     3    15    1
     8     4     6   ar
     9     4    16    1
    10     5     9   ar
    11     5    13    1
    12     6    10   ar
    13     6    14    1
    14     7    11   ar
    15     7    17    1
    16     8    12   ar
    17     8    18    1
    18     9    11   ar
    19     9    19    1
    20    10    12   ar
    21    10    20    1
    22    11    21    1
    23    12    22    1
    24    13    23    1
    25    13    24    1
    26    13    25    1
    27    14    26    1
    28    14    27    1
    29    14    28    1
