@<TRIPOS>MOLECULE
IMPHY008829
 35 39 0 0 0
SMALL
GASTEIGER

@<TRIPOS>ATOM
      1 O           7.0491    1.2496    0.0000 O.3     1  UNL1       -0.4520
      2 O           5.4215    0.6572    0.0000 O.2     1  UNL1       -0.2497
      3 N           8.7572    1.3488    0.0000 N.3     1  UNL1       -0.2987
      4 N           2.8641   -3.2424    0.0000 N.3     1  UNL1       -0.2713
      5 C           8.2572   -0.1900    0.0000 C.3     1  UNL1        0.0492
      6 C           8.2572   -1.1900    0.0000 C.3     1  UNL1        0.0047
      7 C           7.4482    0.3977    0.0000 C.3     1  UNL1       -0.0013
      8 C           7.3912   -1.6900    0.0000 C.3     1  UNL1        0.0049
      9 C           6.5251   -1.1900    0.0000 C.3     1  UNL1        0.0073
     10 C           7.3912    0.3100    0.0000 C.3     1  UNL1        0.1697
     11 C           9.2034   -1.4948    0.0000 C.3     1  UNL1       -0.0001
     12 C           9.7870   -0.6900    0.0000 C.3     1  UNL1       -0.0025
     13 C           9.0662    0.3977    0.0000 C.3     1  UNL1        0.0717
     14 C           6.5251   -0.1900    0.0000 C.3     1  UNL1        0.0440
     15 C           5.6151   -1.6969    0.0000 C.3     1  UNL1        0.0151
     16 C           7.7572    1.3488    0.0000 C.3     1  UNL1        0.0504
     17 C           7.4072   -2.7316    0.0000 C.3     1  UNL1        0.0254
     18 C           5.6071   -2.7385    0.0000 C.2     1  UNL1       -0.0477
     19 C           4.6883   -1.1328    0.0000 C.3     1  UNL1        0.0051
     20 C           6.5092   -3.2593    0.0000 C.2     1  UNL1       -0.0346
     21 C           5.6228   -0.6969    0.0000 C.3     1  UNL1        0.0040
     22 C           7.1694    2.1578    0.0000 C.3     1  UNL1        0.0168
     23 C           4.6717   -3.2882    0.0000 C.3     1  UNL1        0.0376
     24 C           3.7404   -1.6608    0.0000 C.3     1  UNL1        0.0166
     25 C           3.7320   -2.7457    0.0000 C.3     1  UNL1        0.0616
     26 C           6.0643    1.4233    0.0000 C.2     1  UNL1        0.3213
     27 C           5.7223    2.3630    0.0000 C.3     1  UNL1        0.1349
     28 C           2.8602   -4.2424    0.0000 C.3     1  UNL1        0.0896
     29 C           2.0000   -2.7390    0.0000 C.3     1  UNL1        0.0896
     30 C           4.7375    2.5366    0.0000 C.2     1  UNL1       -0.0230
     31 C           4.3955    3.4763    0.0000 C.2     1  UNL1       -0.0473
     32 C           3.4107    3.6500    0.0000 C.3     1  UNL1        0.0260
     33 C           5.0383    4.2424    0.0000 C.3     1  UNL1        0.0260
     34 H           6.6873    0.1505    0.0000 H       1  UNL1        0.0333
     35 H           9.1216    1.8504    0.0000 H       1  UNL1        0.1232
@<TRIPOS>BOND
     1     1    26    1
     2     2    26    2
     3     3    13    1
     4     3    16    1
     5     3    35    1
     6     4    28    1
     7     4    29    1
     8     5     6    1
     9     5     7    1
    10     5    10    1
    11     5    13    1
    12     6     8    1
    13     6    11    1
    14     7    12    1
    15     7    16    1
    16     7    34    1
    17     8     9    1
    18     8    17    1
    19     9    14    1
    20     9    15    1
    21    10     1    1
    22    10    14    1
    23    11    12    1
    24    15    18    1
    25    15    19    1
    26    15    21    1
    27    16    22    1
    28    17    20    1
    29    18    20    2
    30    18    23    1
    31    19    24    1
    32    23    25    1
    33    24    25    1
    34    25     4    1
    35    26    27    1
    36    27    30    1
    37    30    31    2
    38    31    32    1
    39    31    33    1
