@<TRIPOS>MOLECULE
IMPHY000534
 25 30 0 0 0
SMALL
GASTEIGER

@<TRIPOS>ATOM
      1 C           4.9605    2.8385    0.0000 C.3     1  UNL1        0.1375
      2 C           6.5900    2.7444    0.0000 C.ar    1  UNL1        0.0038
      3 C           3.8704    1.9034    0.0000 C.3     1  UNL1        0.0385
      4 O           5.1790    4.0586    0.0000 O.3     1  UNL1       -0.3518
      5 C           6.9718    1.8564    0.0000 C.ar    1  UNL1       -0.0206
      6 C           7.1627    3.5163    0.0000 C.ar    1  UNL1        0.0379
      7 C           5.0213    2.0445    0.0000 C.3     1  UNL1        0.0370
      8 C           3.2895    2.4622    0.0000 C.3     1  UNL1        0.0293
      9 C           5.6217    3.4471    0.0000 C.3     1  UNL1        0.1429
     10 C           5.9841    1.3418    0.0000 C.3     1  UNL1        0.0288
     11 C           7.9318    1.7457    0.0000 C.ar    1  UNL1        0.0357
     12 C           8.1227    3.4084    0.0000 C.ar    1  UNL1        0.1762
     13 C           2.1607    1.9477    0.0000 C.ar    1  UNL1       -0.0189
     14 C           8.5100    2.5203    0.0000 C.ar    1  UNL1        0.1761
     15 O           8.8475    4.0503    0.0000 O.3     1  UNL1       -0.4346
     16 C           2.0805    1.1288    0.0000 C.ar    1  UNL1        0.0359
     17 C           1.4912    2.4263    0.0000 C.ar    1  UNL1       -0.0009
     18 O           9.4700    2.6116    0.0000 O.3     1  UNL1       -0.4346
     19 C           9.6830    3.5523    0.0000 C.3     1  UNL1        0.4294
     20 C           1.3307    0.7857    0.0000 C.ar    1  UNL1        0.1761
     21 C           0.7414    2.0888    0.0000 C.ar    1  UNL1        0.0399
     22 C           0.6612    1.2699    0.0000 C.ar    1  UNL1        0.1764
     23 O           1.0790    0.0000    0.0000 O.3     1  UNL1       -0.4346
     24 O           0.0000    0.7802    0.0000 O.3     1  UNL1       -0.4346
     25 C           0.2545    0.0000    0.0000 C.3     1  UNL1        0.4294
@<TRIPOS>BOND
     1     1     2    1
     2     1     3    1
     3     1     4    1
     4     2     5   ar
     5     2     6   ar
     6     3     7    1
     7     3     8    1
     8     4     9    1
     9     5    10    1
    10     5    11   ar
    11     6    12   ar
    12     7     9    1
    13     7    10    1
    14     8    13    1
    15    11    14   ar
    16    12    14   ar
    17    12    15    1
    18    13    16   ar
    19    13    17   ar
    20    14    18    1
    21    15    19    1
    22    16    20   ar
    23    17    21   ar
    24    18    19    1
    25    20    22   ar
    26    20    23    1
    27    21    22   ar
    28    22    24    1
    29    23    25    1
    30    24    25    1
