@<TRIPOS>MOLECULE
IMPHY006290
 75 76 0 0 0
SMALL
GASTEIGER

@<TRIPOS>ATOM
      1 O           6.0682   -2.7638    0.0000 O.3     1  UNL1       -0.4854
      2 O           2.5381   -0.7396    0.0000 O.3     1  UNL1       -0.5067
      3 C           6.9343   -2.2638    0.0000 C.3     1  UNL1        0.1082
      4 C           7.9343   -2.2638    0.0000 C.3     1  UNL1       -0.0132
      5 C           9.9343   -0.5317    0.0000 C.3     1  UNL1       -0.0439
      6 C           8.4343   -1.3978    0.0000 C.3     1  UNL1       -0.0492
      7 C           6.9343   -1.2638    0.0000 C.3     1  UNL1       -0.0091
      8 C           9.4343   -1.3978    0.0000 C.3     1  UNL1       -0.0503
      9 C          10.9343   -0.5317    0.0000 C.3     1  UNL1       -0.0505
     10 C          11.4343    0.3343    0.0000 C.3     1  UNL1       -0.0526
     11 C           6.0682   -0.7638    0.0000 C.3     1  UNL1       -0.0205
     12 C          12.9343    1.2003    0.0000 C.3     1  UNL1       -0.0439
     13 C          12.4343    0.3343    0.0000 C.3     1  UNL1       -0.0505
     14 C           7.4343   -3.1298    0.0000 C.3     1  UNL1       -0.0249
     15 C           5.2022   -1.2638    0.0000 C.ar    1  UNL1       -0.0018
     16 C           5.2022   -2.2638    0.0000 C.ar    1  UNL1        0.1276
     17 C          13.9343    1.2003    0.0000 C.3     1  UNL1       -0.0505
     18 C           9.4343    0.3343    0.0000 C.3     1  UNL1       -0.0624
     19 C          14.4343    2.0663    0.0000 C.3     1  UNL1       -0.0526
     20 C          12.4343    2.0663    0.0000 C.3     1  UNL1       -0.0624
     21 C          15.4343    2.0663    0.0000 C.3     1  UNL1       -0.0507
     22 C           4.3083   -2.7984    0.0000 C.ar    1  UNL1       -0.0050
     23 C           4.3083   -0.7291    0.0000 C.ar    1  UNL1       -0.0135
     24 C          15.9343    2.9324    0.0000 C.3     1  UNL1       -0.0467
     25 C           3.4022   -2.2846    0.0000 C.ar    1  UNL1       -0.0138
     26 C           3.4022   -1.2430    0.0000 C.ar    1  UNL1        0.1176
     27 C           4.3198   -3.7984    0.0000 C.3     1  UNL1       -0.0361
     28 C          16.9343    2.9324    0.0000 C.3     1  UNL1       -0.0627
     29 C          15.4343    3.7984    0.0000 C.3     1  UNL1       -0.0627
     30 H           7.8266   -2.8744    0.0000 H       1  UNL1        0.0304
     31 H           8.5169   -2.4758    0.0000 H       1  UNL1        0.0304
     32 H           9.3143   -0.5317    0.0000 H       1  UNL1        0.0298
     33 H           8.5419   -0.7872    0.0000 H       1  UNL1        0.0267
     34 H           7.8517   -1.1857    0.0000 H       1  UNL1        0.0267
     35 H           7.5449   -1.3714    0.0000 H       1  UNL1        0.0307
     36 H           7.1463   -0.6812    0.0000 H       1  UNL1        0.0307
     37 H           9.3266   -2.0084    0.0000 H       1  UNL1        0.0268
     38 H          10.0169   -1.6098    0.0000 H       1  UNL1        0.0268
     39 H          10.8266   -1.1423    0.0000 H       1  UNL1        0.0268
     40 H          11.5169   -0.7438    0.0000 H       1  UNL1        0.0268
     41 H          11.5419    0.9449    0.0000 H       1  UNL1        0.0265
     42 H          10.8517    0.5463    0.0000 H       1  UNL1        0.0265
     43 H           6.4668   -0.2888    0.0000 H       1  UNL1        0.0316
     44 H           5.6697   -0.2888    0.0000 H       1  UNL1        0.0316
     45 H          13.2443    1.7372    0.0000 H       1  UNL1        0.0298
     46 H          12.3266   -0.2763    0.0000 H       1  UNL1        0.0268
     47 H          13.0169    0.1222    0.0000 H       1  UNL1        0.0268
     48 H           6.8973   -3.4398    0.0000 H       1  UNL1        0.0268
     49 H           7.7443   -3.6668    0.0000 H       1  UNL1        0.0268
     50 H           7.9712   -2.8198    0.0000 H       1  UNL1        0.0268
     51 H          13.8266    0.5897    0.0000 H       1  UNL1        0.0268
     52 H          14.5169    0.9883    0.0000 H       1  UNL1        0.0268
     53 H           9.9712    0.6443    0.0000 H       1  UNL1        0.0232
     54 H           9.1243    0.8712    0.0000 H       1  UNL1        0.0232
     55 H           8.8973    0.0243    0.0000 H       1  UNL1        0.0232
     56 H          14.5419    2.6769    0.0000 H       1  UNL1        0.0265
     57 H          13.8517    2.2784    0.0000 H       1  UNL1        0.0265
     58 H          12.9712    2.3763    0.0000 H       1  UNL1        0.0232
     59 H          12.1243    2.6033    0.0000 H       1  UNL1        0.0232
     60 H          11.8973    1.7563    0.0000 H       1  UNL1        0.0232
     61 H          15.3266    1.4558    0.0000 H       1  UNL1        0.0268
     62 H          16.0169    1.8543    0.0000 H       1  UNL1        0.0268
     63 H           4.3154   -0.1092    0.0000 H       1  UNL1        0.0658
     64 H          15.3143    2.9324    0.0000 H       1  UNL1        0.0295
     65 H           2.8665   -2.5967    0.0000 H       1  UNL1        0.0658
     66 H           3.6999   -3.8056    0.0000 H       1  UNL1        0.0279
     67 H           4.3270   -4.4183    0.0000 H       1  UNL1        0.0279
     68 H           4.9398   -3.7912    0.0000 H       1  UNL1        0.0279
     69 H          15.9712    4.1084    0.0000 H       1  UNL1        0.0232
     70 H          15.1243    4.3353    0.0000 H       1  UNL1        0.0232
     71 H          14.8973    3.4884    0.0000 H       1  UNL1        0.0232
     72 H          16.9343    2.3124    0.0000 H       1  UNL1        0.0232
     73 H          17.5543    2.9324    0.0000 H       1  UNL1        0.0232
     74 H          16.9343    3.5524    0.0000 H       1  UNL1        0.0232
     75 H           2.0000   -1.0476    0.0000 H       1  UNL1        0.2921
@<TRIPOS>BOND
     1     1     3    1
     2     1    16    1
     3     2    26    1
     4     2    75    1
     5     3     4    1
     6     3     7    1
     7     3    14    1
     8     4     6    1
     9     4    30    1
    10     4    31    1
    11     5     8    1
    12     5     9    1
    13     5    18    1
    14     5    32    1
    15     6     8    1
    16     6    33    1
    17     6    34    1
    18     7    11    1
    19     7    35    1
    20     7    36    1
    21     8    37    1
    22     8    38    1
    23     9    10    1
    24     9    39    1
    25     9    40    1
    26    10    13    1
    27    10    41    1
    28    10    42    1
    29    11    15    1
    30    11    43    1
    31    11    44    1
    32    12    13    1
    33    12    17    1
    34    12    20    1
    35    12    45    1
    36    13    46    1
    37    13    47    1
    38    14    48    1
    39    14    49    1
    40    14    50    1
    41    15    16   ar
    42    15    23   ar
    43    16    22   ar
    44    17    19    1
    45    17    51    1
    46    17    52    1
    47    18    53    1
    48    18    54    1
    49    18    55    1
    50    19    21    1
    51    19    56    1
    52    19    57    1
    53    20    58    1
    54    20    59    1
    55    20    60    1
    56    21    24    1
    57    21    61    1
    58    21    62    1
    59    22    25   ar
    60    22    27    1
    61    23    26   ar
    62    23    63    1
    63    24    28    1
    64    24    29    1
    65    24    64    1
    66    25    26   ar
    67    25    65    1
    68    27    66    1
    69    27    67    1
    70    27    68    1
    71    28    72    1
    72    28    73    1
    73    28    74    1
    74    29    69    1
    75    29    70    1
    76    29    71    1
