@<TRIPOS>MOLECULE
IMPHY010540
 94 96 0 0 0
SMALL
GASTEIGER

@<TRIPOS>ATOM
      1 O           9.0371    3.3758    0.0000 O.2     1  UNL1       -0.2953
      2 O           9.2454   -1.3038    0.0000 O.2     1  UNL1       -0.2907
      3 O          10.4494    2.0041    0.0000 O.2     1  UNL1       -0.2908
      4 O          11.8151    0.5556    0.0000 O.2     1  UNL1       -0.5054
      5 O          13.2758   -2.7409    0.0000 O.3     1  UNL1       -0.5033
      6 O          11.7437   -4.0264    0.0000 O.3     1  UNL1       -0.5033
      7 C           6.7876   -0.2334    0.0000 C.3     1  UNL1       -0.0120
      8 C           8.0593    0.5613    0.0000 C.3     1  UNL1        0.1014
      9 C           6.0105    0.3960    0.0000 C.3     1  UNL1       -0.0298
     10 C           7.8005    1.5272    0.0000 C.3     1  UNL1        0.0935
     11 C           6.3688    1.3295    0.0000 C.3     1  UNL1       -0.0298
     12 C           8.5371    2.5098    0.0000 C.2     1  UNL1        0.1613
     13 C           7.5417    2.4931    0.0000 C.3     1  UNL1       -0.0267
     14 C           8.3181   -0.4047    0.0000 C.3     1  UNL1       -0.0144
     15 C           9.2803   -0.3044    0.0000 C.2     1  UNL1        0.1841
     16 C           6.2430   -1.0720    0.0000 C.3     1  UNL1       -0.0582
     17 C           6.9095   -1.2259    0.0000 C.3     1  UNL1       -0.0582
     18 C           9.8337    1.2161    0.0000 C.2     1  UNL1        0.1833
     19 C           5.0446    0.1371    0.0000 C.3     1  UNL1       -0.0311
     20 C          10.1094    0.2548    0.0000 C.2     1  UNL1        0.1036
     21 C           6.5758    2.7519    0.0000 C.3     1  UNL1       -0.0157
     22 C           7.6110   -1.1118    0.0000 C.2     1  UNL1       -0.0839
     23 C           4.7857   -0.8288    0.0000 C.2     1  UNL1       -0.0850
     24 C           5.8686    2.0448    0.0000 C.3     1  UNL1       -0.0280
     25 C          11.0491   -0.0872    0.0000 C.2     1  UNL1        0.1380
     26 C           6.3169    3.7179    0.0000 C.2     1  UNL1       -0.0763
     27 C           7.8698   -2.0777    0.0000 C.2     1  UNL1       -0.0796
     28 C           3.8198   -1.0876    0.0000 C.2     1  UNL1       -0.0796
     29 C          11.2227   -1.0720    0.0000 C.ar    1  UNL1        0.0209
     30 C           4.9027    2.3037    0.0000 C.2     1  UNL1       -0.0847
     31 C           5.3510    3.9767    0.0000 C.3     1  UNL1       -0.0438
     32 C           7.0240    4.4250    0.0000 C.2     1  UNL1       -0.0994
     33 C           7.1627   -2.7848    0.0000 C.3     1  UNL1       -0.0440
     34 C           8.8358   -2.3365    0.0000 C.3     1  UNL1       -0.0440
     35 C           3.5610   -2.0535    0.0000 C.3     1  UNL1       -0.0440
     36 C           3.1127   -0.3805    0.0000 C.3     1  UNL1       -0.0440
     37 C           4.1956    1.5966    0.0000 C.2     1  UNL1       -0.0796
     38 C          12.1624   -1.4140    0.0000 C.ar    1  UNL1       -0.0059
     39 C          10.4567   -1.7148    0.0000 C.ar    1  UNL1       -0.0474
     40 C          12.3361   -2.3988    0.0000 C.ar    1  UNL1        0.1589
     41 C          10.6303   -2.6996    0.0000 C.ar    1  UNL1       -0.0159
     42 C           3.2297    1.8554    0.0000 C.3     1  UNL1       -0.0440
     43 C           4.4544    0.6306    0.0000 C.3     1  UNL1       -0.0440
     44 C          11.5700   -3.0416    0.0000 C.ar    1  UNL1        0.1583
     45 H           5.5956    0.8567    0.0000 H       1  UNL1        0.0310
     46 H           5.7610    1.4519    0.0000 H       1  UNL1        0.0282
     47 H           6.3879    1.9492    0.0000 H       1  UNL1        0.0282
     48 H           7.5957    3.1108    0.0000 H       1  UNL1        0.0285
     49 H           8.1593    2.5472    0.0000 H       1  UNL1        0.0285
     50 H           8.8800   -0.1426    0.0000 H       1  UNL1        0.0321
     51 H           8.6738   -0.9125    0.0000 H       1  UNL1        0.0321
     52 H           6.7630   -1.4097    0.0000 H       1  UNL1        0.0235
     53 H           5.9053   -1.5920    0.0000 H       1  UNL1        0.0235
     54 H           5.7230   -0.7344    0.0000 H       1  UNL1        0.0235
     55 H           7.5248   -1.1504    0.0000 H       1  UNL1        0.0235
     56 H           6.9850   -1.8413    0.0000 H       1  UNL1        0.0235
     57 H           6.2941   -1.3014    0.0000 H       1  UNL1        0.0235
     58 H           4.4269    0.1912    0.0000 H       1  UNL1        0.0310
     59 H           4.9905    0.7548    0.0000 H       1  UNL1        0.0310
     60 H           5.9769    2.9124    0.0000 H       1  UNL1        0.0349
     61 H           7.0122   -0.9513    0.0000 H       1  UNL1        0.0572
     62 H           5.2242   -1.2672    0.0000 H       1  UNL1        0.0572
     63 H           6.3765    1.6892    0.0000 H       1  UNL1        0.0313
     64 H           5.6066    1.4829    0.0000 H       1  UNL1        0.0313
     65 H           4.7422    2.9025    0.0000 H       1  UNL1        0.0572
     66 H           5.1905    3.3778    0.0000 H       1  UNL1        0.0274
     67 H           4.7521    4.1372    0.0000 H       1  UNL1        0.0274
     68 H           5.5115    4.5756    0.0000 H       1  UNL1        0.0274
     69 H           6.8636    5.0239    0.0000 H       1  UNL1        0.0534
     70 H           7.6229    4.2645    0.0000 H       1  UNL1        0.0534
     71 H          12.3977    0.3435    0.0000 H       1  UNL1        0.2922
     72 H           7.6011   -3.2232    0.0000 H       1  UNL1        0.0274
     73 H           6.7243   -3.2232    0.0000 H       1  UNL1        0.0274
     74 H           6.7243   -2.3464    0.0000 H       1  UNL1        0.0274
     75 H           8.9962   -1.7376    0.0000 H       1  UNL1        0.0274
     76 H           9.4346   -2.4970    0.0000 H       1  UNL1        0.0274
     77 H           8.6753   -2.9354    0.0000 H       1  UNL1        0.0274
     78 H           4.1599   -2.2140    0.0000 H       1  UNL1        0.0274
     79 H           3.4005   -2.6524    0.0000 H       1  UNL1        0.0274
     80 H           2.9621   -1.8931    0.0000 H       1  UNL1        0.0274
     81 H           2.6743   -0.8189    0.0000 H       1  UNL1        0.0274
     82 H           2.6743    0.0579    0.0000 H       1  UNL1        0.0274
     83 H           3.5511    0.0579    0.0000 H       1  UNL1        0.0274
     84 H          12.6374   -1.0155    0.0000 H       1  UNL1        0.0662
     85 H           9.8741   -1.5028    0.0000 H       1  UNL1        0.0626
     86 H          10.1554   -3.0982    0.0000 H       1  UNL1        0.0655
     87 H           3.0692    1.2565    0.0000 H       1  UNL1        0.0274
     88 H           2.6308    2.0158    0.0000 H       1  UNL1        0.0274
     89 H           3.3902    2.4542    0.0000 H       1  UNL1        0.0274
     90 H           5.0533    0.7911    0.0000 H       1  UNL1        0.0274
     91 H           4.6149    0.0317    0.0000 H       1  UNL1        0.0274
     92 H           3.8556    0.4702    0.0000 H       1  UNL1        0.0274
     93 H          13.7507   -2.3423    0.0000 H       1  UNL1        0.2923
     94 H          11.2687   -4.4250    0.0000 H       1  UNL1        0.2923
@<TRIPOS>BOND
     1     1    12    2
     2     2    15    2
     3     3    18    2
     4     4    25    1
     5     4    71    1
     6     5    40    1
     7     5    93    1
     8     6    44    1
     9     6    94    1
    10     7     8    1
    11     7     9    1
    12     7    16    1
    13     7    17    1
    14     8    12    1
    15     8    14    1
    16     8    15    1
    17     9    11    1
    18     9    19    1
    19     9    45    1
    20    10    11    1
    21    10    12    1
    22    10    13    1
    23    10    18    1
    24    11    46    1
    25    11    47    1
    26    13    21    1
    27    13    48    1
    28    13    49    1
    29    14    22    1
    30    14    50    1
    31    14    51    1
    32    15    20    1
    33    16    52    1
    34    16    53    1
    35    16    54    1
    36    17    55    1
    37    17    56    1
    38    17    57    1
    39    18    20    1
    40    19    23    1
    41    19    58    1
    42    19    59    1
    43    20    25    2
    44    21    24    1
    45    21    26    1
    46    21    60    1
    47    22    27    2
    48    22    61    1
    49    23    28    2
    50    23    62    1
    51    24    30    1
    52    24    63    1
    53    24    64    1
    54    25    29    1
    55    26    31    1
    56    26    32    2
    57    27    33    1
    58    27    34    1
    59    28    35    1
    60    28    36    1
    61    29    38   ar
    62    29    39   ar
    63    30    37    2
    64    30    65    1
    65    31    66    1
    66    31    67    1
    67    31    68    1
    68    32    69    1
    69    32    70    1
    70    33    72    1
    71    33    73    1
    72    33    74    1
    73    34    75    1
    74    34    76    1
    75    34    77    1
    76    35    78    1
    77    35    79    1
    78    35    80    1
    79    36    81    1
    80    36    82    1
    81    36    83    1
    82    37    42    1
    83    37    43    1
    84    38    40   ar
    85    38    84    1
    86    39    41   ar
    87    39    85    1
    88    40    44   ar
    89    41    44   ar
    90    41    86    1
    91    42    87    1
    92    42    88    1
    93    42    89    1
    94    43    90    1
    95    43    91    1
    96    43    92    1
