@<TRIPOS>MOLECULE
IMPHY006865
 186 195 0 0 0
SMALL
GASTEIGER

@<TRIPOS>ATOM
      1 O           6.8671   -2.0496    0.0000 O.3     1  UNL1       -0.3418
      2 O           5.0597   -0.9968    0.0000 O.3     1  UNL1       -0.3892
      3 O           8.6209    7.2298    0.0000 O.3     1  UNL1       -0.4318
      4 O           9.3112   -1.3579    0.0000 O.3     1  UNL1       -0.4802
      5 O           9.2979    0.3741    0.0000 O.2     1  UNL1       -0.2503
      6 O           9.5042    5.7400    0.0000 O.2     1  UNL1       -0.2501
      7 O           5.1350   -2.0496    0.0000 O.3     1  UNL1       -0.3405
      8 O           6.8671   -4.0496    0.0000 O.3     1  UNL1       -0.3377
      9 O           9.4695    8.7398    0.0000 O.3     1  UNL1       -0.3312
     10 O           5.1350   -5.0496    0.0000 O.3     1  UNL1       -0.3864
     11 O           3.4030   -4.0496    0.0000 O.3     1  UNL1       -0.3865
     12 O          10.3644    6.2499    0.0000 O.3     1  UNL1       -0.3829
     13 O          12.0847    7.2699    0.0000 O.3     1  UNL1       -0.3864
     14 O           6.0010   -5.5496    0.0000 O.3     1  UNL1       -0.3405
     15 O           2.5369   -2.5496    0.0000 O.3     1  UNL1       -0.3924
     16 O          12.0616    9.2698    0.0000 O.3     1  UNL1       -0.3865
     17 O           8.5991   -5.0496    0.0000 O.3     1  UNL1       -0.3377
     18 O           9.4464   10.7396    0.0000 O.3     1  UNL1       -0.3924
     19 O           8.5991   -7.0496    0.0000 O.3     1  UNL1       -0.3400
     20 O           6.8671   -8.0496    0.0000 O.3     1  UNL1       -0.3865
     21 O          10.2267   -5.6420    0.0000 O.3     1  UNL1       -0.3405
     22 O           4.2690   -6.5496    0.0000 O.3     1  UNL1       -0.3924
     23 O           7.7331   -8.5496    0.0000 O.3     1  UNL1       -0.3431
     24 O           9.2831   -3.1702    0.0000 O.3     1  UNL1       -0.3841
     25 O          10.3312   -8.0496    0.0000 O.3     1  UNL1       -0.3841
     26 O          11.2528   -2.8229    0.0000 O.3     1  UNL1       -0.3864
     27 O          12.5383   -4.3550    0.0000 O.3     1  UNL1       -0.3865
     28 O          10.3312  -10.0496    0.0000 O.3     1  UNL1       -0.3864
     29 O           8.5991  -11.0496    0.0000 O.3     1  UNL1       -0.3866
     30 O          12.8391   -6.0607    0.0000 O.3     1  UNL1       -0.3924
     31 C           7.7681    2.6506    0.0000 C.3     1  UNL1       -0.0194
     32 C           6.9040    2.1473    0.0000 C.3     1  UNL1       -0.0256
     33 C           6.8920    1.1057    0.0000 C.3     1  UNL1       -0.0221
     34 C           7.7643    3.6506    0.0000 C.3     1  UNL1       -0.0051
     35 C           7.7920    0.5815    0.0000 C.3     1  UNL1       -0.0172
     36 C           8.6801    2.1473    0.0000 C.3     1  UNL1       -0.0463
     37 C           6.8963    4.1473    0.0000 C.2     1  UNL1       -0.0629
     38 C           8.6921    1.1057    0.0000 C.3     1  UNL1       -0.0481
     39 C           7.8046   -0.5035    0.0000 C.3     1  UNL1        0.0966
     40 C           6.8762    5.1887    0.0000 C.3     1  UNL1       -0.0031
     41 C           6.0361    2.6440    0.0000 C.3     1  UNL1       -0.0306
     42 C           5.9421    0.5815    0.0000 C.3     1  UNL1       -0.0184
     43 C           8.6723    4.1610    0.0000 C.3     1  UNL1       -0.0424
     44 C           7.7722    5.7199    0.0000 C.3     1  UNL1        0.0744
     45 C           8.7522    2.8281    0.0000 C.3     1  UNL1       -0.0585
     46 C           8.6763    5.2026    0.0000 C.3     1  UNL1       -0.0359
     47 C           6.8671   -1.0496    0.0000 C.3     1  UNL1        0.1033
     48 C           6.0322    3.6440    0.0000 C.2     1  UNL1       -0.0836
     49 C           5.9295   -0.5035    0.0000 C.3     1  UNL1        0.0830
     50 C           6.0279    1.6091    0.0000 C.3     1  UNL1       -0.0589
     51 C           8.7497    3.4808    0.0000 C.3     1  UNL1       -0.0553
     52 C           5.9223    5.7057    0.0000 C.3     1  UNL1       -0.0403
     53 C           7.7764    6.8049    0.0000 C.3     1  UNL1       -0.0362
     54 C           5.9014    6.7905    0.0000 C.3     1  UNL1       -0.0343
     55 C           6.8347    7.3438    0.0000 C.3     1  UNL1       -0.0468
     56 C           8.3113   -1.3656    0.0000 C.3     1  UNL1       -0.0466
     57 C           8.8046   -0.4958    0.0000 C.2     1  UNL1        0.3136
     58 C           8.6324    6.2299    0.0000 C.2     1  UNL1        0.3161
     59 C           5.3881    7.6487    0.0000 C.3     1  UNL1       -0.0598
     60 C           4.9015    6.7750    0.0000 C.3     1  UNL1       -0.0598
     61 C           6.0010   -2.5496    0.0000 C.3     1  UNL1        0.1887
     62 C           6.0010   -3.5496    0.0000 C.3     1  UNL1        0.1406
     63 C           9.4810    7.7398    0.0000 C.3     1  UNL1        0.2337
     64 C           5.1350   -4.0496    0.0000 C.3     1  UNL1        0.1144
     65 C           4.2690   -2.5496    0.0000 C.3     1  UNL1        0.1130
     66 C           4.2690   -3.5496    0.0000 C.3     1  UNL1        0.1119
     67 C          10.3528    7.2499    0.0000 C.3     1  UNL1        0.1455
     68 C          11.2130    7.7599    0.0000 C.3     1  UNL1        0.1152
     69 C          10.3297    9.2497    0.0000 C.3     1  UNL1        0.1140
     70 C           3.4030   -2.0496    0.0000 C.3     1  UNL1        0.0730
     71 C          11.2014    8.7598    0.0000 C.3     1  UNL1        0.1120
     72 C           6.8671   -5.0496    0.0000 C.3     1  UNL1        0.1889
     73 C           7.7331   -5.5496    0.0000 C.3     1  UNL1        0.1410
     74 C          10.3181   10.2497    0.0000 C.3     1  UNL1        0.0731
     75 C           7.7331   -6.5496    0.0000 C.3     1  UNL1        0.1209
     76 C           6.0010   -6.5496    0.0000 C.3     1  UNL1        0.1130
     77 C           6.8671   -7.0496    0.0000 C.3     1  UNL1        0.1123
     78 C           5.1350   -7.0496    0.0000 C.3     1  UNL1        0.0730
     79 C           9.5839   -4.8759    0.0000 C.3     1  UNL1        0.1885
     80 C           8.5991   -8.0496    0.0000 C.3     1  UNL1        0.1883
     81 C           9.9259   -3.9362    0.0000 C.3     1  UNL1        0.1341
     82 C           9.4651   -8.5496    0.0000 C.3     1  UNL1        0.1341
     83 C          10.9107   -3.7626    0.0000 C.3     1  UNL1        0.1141
     84 C          11.2115   -5.4683    0.0000 C.3     1  UNL1        0.1130
     85 C          11.5535   -4.5286    0.0000 C.3     1  UNL1        0.1119
     86 C           9.4651   -9.5496    0.0000 C.3     1  UNL1        0.1140
     87 C           7.7331   -9.5496    0.0000 C.3     1  UNL1        0.0873
     88 C           8.5991  -10.0496    0.0000 C.3     1  UNL1        0.1095
     89 C          11.8543   -6.2344    0.0000 C.3     1  UNL1        0.0730
     90 C           6.8671  -10.0496    0.0000 C.3     1  UNL1       -0.0361
     91 H           7.6385    1.7195    0.0000 H       1  UNL1        0.0315
     92 H           8.5314    0.1621    0.0000 H       1  UNL1        0.0317
     93 H           9.2921    2.0483    0.0000 H       1  UNL1        0.0271
     94 H           8.8824    2.7334    0.0000 H       1  UNL1        0.0271
     95 H           8.9079    0.5245    0.0000 H       1  UNL1        0.0269
     96 H           9.3017    1.2189    0.0000 H       1  UNL1        0.0269
     97 H           6.1502    4.7468    0.0000 H       1  UNL1        0.0357
     98 H           5.4251    2.7493    0.0000 H       1  UNL1        0.0310
     99 H           5.8263    2.0605    0.0000 H       1  UNL1        0.0310
    100 H           5.7398    1.1675    0.0000 H       1  UNL1        0.0296
    101 H           5.3300    0.4824    0.0000 H       1  UNL1        0.0296
    102 H           8.8791    3.5765    0.0000 H       1  UNL1        0.0274
    103 H           9.2836    4.2647    0.0000 H       1  UNL1        0.0274
    104 H           8.8623    2.2179    0.0000 H       1  UNL1        0.0235
    105 H           9.3624    2.9381    0.0000 H       1  UNL1        0.0235
    106 H           8.6422    3.4382    0.0000 H       1  UNL1        0.0235
    107 H           9.2868    5.0942    0.0000 H       1  UNL1        0.0276
    108 H           8.8876    5.7855    0.0000 H       1  UNL1        0.0276
    109 H           7.4046   -1.3586    0.0000 H       1  UNL1        0.0634
    110 H           5.4941    3.9519    0.0000 H       1  UNL1        0.0572
    111 H           5.9259   -1.1235    0.0000 H       1  UNL1        0.0619
    112 H           6.3400    2.1448    0.0000 H       1  UNL1        0.0235
    113 H           5.4922    1.9211    0.0000 H       1  UNL1        0.0235
    114 H           5.7158    1.0733    0.0000 H       1  UNL1        0.0235
    115 H           8.6444    2.8698    0.0000 H       1  UNL1        0.0238
    116 H           9.3607    3.3755    0.0000 H       1  UNL1        0.0238
    117 H           8.8550    4.0918    0.0000 H       1  UNL1        0.0238
    118 H           5.3095    5.8000    0.0000 H       1  UNL1        0.0276
    119 H           5.7246    5.1181    0.0000 H       1  UNL1        0.0276
    120 H           8.3869    6.6965    0.0000 H       1  UNL1        0.0276
    121 H           7.9877    7.3878    0.0000 H       1  UNL1        0.0276
    122 H           7.2302    7.8213    0.0000 H       1  UNL1        0.0271
    123 H           6.4319    7.8151    0.0000 H       1  UNL1        0.0271
    124 H           7.7767   -1.6798    0.0000 H       1  UNL1        0.0241
    125 H           8.6254   -1.9002    0.0000 H       1  UNL1        0.0241
    126 H           8.8458   -1.0515    0.0000 H       1  UNL1        0.0241
    127 H           4.8920    7.3950    0.0000 H       1  UNL1        0.0235
    128 H           4.2816    6.7655    0.0000 H       1  UNL1        0.0235
    129 H           4.9111    6.1551    0.0000 H       1  UNL1        0.0235
    130 H           5.9202    7.9669    0.0000 H       1  UNL1        0.0235
    131 H           5.0699    8.1808    0.0000 H       1  UNL1        0.0235
    132 H           4.8560    7.3304    0.0000 H       1  UNL1        0.0235
    133 H           4.5251   -0.6827    0.0000 H       1  UNL1        0.2099
    134 H           6.0010   -1.9296    0.0000 H       1  UNL1        0.0938
    135 H           9.9312   -1.3531    0.0000 H       1  UNL1        0.2951
    136 H           6.0010   -4.1696    0.0000 H       1  UNL1        0.0675
    137 H           9.4882    7.1199    0.0000 H       1  UNL1        0.1085
    138 H           4.5981   -4.3596    0.0000 H       1  UNL1        0.0648
    139 H           4.2690   -1.9296    0.0000 H       1  UNL1        0.0647
    140 H           3.7320   -3.2396    0.0000 H       1  UNL1        0.0647
    141 H          10.8933    6.9461    0.0000 H       1  UNL1        0.0683
    142 H          11.7463    8.0760    0.0000 H       1  UNL1        0.0648
    143 H           9.7892    9.5535    0.0000 H       1  UNL1        0.0647
    144 H           3.8015   -1.5746    0.0000 H       1  UNL1        0.0584
    145 H           3.0044   -1.5746    0.0000 H       1  UNL1        0.0584
    146 H          11.1943    9.3798    0.0000 H       1  UNL1        0.0647
    147 H           7.4040   -4.7396    0.0000 H       1  UNL1        0.0938
    148 H           4.5981   -5.3596    0.0000 H       1  UNL1        0.2100
    149 H           3.4030   -4.6696    0.0000 H       1  UNL1        0.2100
    150 H          10.9049    5.9462    0.0000 H       1  UNL1        0.2102
    151 H           8.2700   -5.8596    0.0000 H       1  UNL1        0.0675
    152 H          10.9299   10.1491    0.0000 H       1  UNL1        0.0584
    153 H          10.5234   10.8347    0.0000 H       1  UNL1        0.0584
    154 H          12.6181    7.5861    0.0000 H       1  UNL1        0.2100
    155 H           7.7331   -7.1696    0.0000 H       1  UNL1        0.0651
    156 H           2.0000   -2.2396    0.0000 H       1  UNL1        0.2095
    157 H          12.0544    9.8897    0.0000 H       1  UNL1        0.2100
    158 H           5.4641   -6.2396    0.0000 H       1  UNL1        0.0647
    159 H           6.3301   -7.3596    0.0000 H       1  UNL1        0.0647
    160 H           9.4392   11.3596    0.0000 H       1  UNL1        0.2095
    161 H           4.7365   -7.5245    0.0000 H       1  UNL1        0.0584
    162 H           5.5335   -7.5245    0.0000 H       1  UNL1        0.0584
    163 H           9.3719   -5.4586    0.0000 H       1  UNL1        0.0938
    164 H           6.3301   -8.3596    0.0000 H       1  UNL1        0.2100
    165 H           8.0622   -7.7396    0.0000 H       1  UNL1        0.0938
    166 H          10.1380   -3.3536    0.0000 H       1  UNL1        0.0671
    167 H           3.7320   -6.8596    0.0000 H       1  UNL1        0.2095
    168 H          10.0021   -8.8596    0.0000 H       1  UNL1        0.0671
    169 H          11.5213   -3.6549    0.0000 H       1  UNL1        0.0648
    170 H          10.9995   -6.0509    0.0000 H       1  UNL1        0.0647
    171 H          11.9521   -5.0036    0.0000 H       1  UNL1        0.0647
    172 H           9.4651  -10.1696    0.0000 H       1  UNL1        0.0648
    173 H           7.1962   -9.2396    0.0000 H       1  UNL1        0.0621
    174 H           8.0622  -10.3596    0.0000 H       1  UNL1        0.0646
    175 H           9.4952   -2.5876    0.0000 H       1  UNL1        0.2101
    176 H          11.3174   -6.5444    0.0000 H       1  UNL1        0.0584
    177 H          12.0664   -6.8170    0.0000 H       1  UNL1        0.0584
    178 H          10.8681   -8.3596    0.0000 H       1  UNL1        0.2101
    179 H          11.8633   -2.7152    0.0000 H       1  UNL1        0.2100
    180 H          12.7504   -3.7724    0.0000 H       1  UNL1        0.2100
    181 H           6.5571   -9.5126    0.0000 H       1  UNL1        0.0255
    182 H           6.3301  -10.3596    0.0000 H       1  UNL1        0.0255
    183 H           7.1771  -10.5865    0.0000 H       1  UNL1        0.0255
    184 H          10.3312  -10.6696    0.0000 H       1  UNL1        0.2100
    185 H           8.0622  -11.3596    0.0000 H       1  UNL1        0.2100
    186 H          13.2376   -6.5357    0.0000 H       1  UNL1        0.2095
@<TRIPOS>BOND
     1    47     1    1
     2    61     1    1
     3    49     2    1
     4     2   133    1
     5     3    58    1
     6    63     3    1
     7     4    57    1
     8     4   135    1
     9     5    57    2
    10     6    58    2
    11     7    61    1
    12     7    65    1
    13    62     8    1
    14    72     8    1
    15     9    63    1
    16     9    69    1
    17    64    10    1
    18    10   148    1
    19    66    11    1
    20    11   149    1
    21    67    12    1
    22    12   150    1
    23    68    13    1
    24    13   154    1
    25    14    72    1
    26    14    76    1
    27    15    70    1
    28    15   156    1
    29    71    16    1
    30    16   157    1
    31    73    17    1
    32    79    17    1
    33    18    74    1
    34    18   160    1
    35    75    19    1
    36    80    19    1
    37    77    20    1
    38    20   164    1
    39    21    79    1
    40    21    84    1
    41    22    78    1
    42    22   167    1
    43    23    80    1
    44    23    87    1
    45    81    24    1
    46    24   175    1
    47    82    25    1
    48    25   178    1
    49    83    26    1
    50    26   179    1
    51    85    27    1
    52    27   180    1
    53    86    28    1
    54    28   184    1
    55    88    29    1
    56    29   185    1
    57    30    89    1
    58    30   186    1
    59    31    32    1
    60    31    34    1
    61    31    36    1
    62    31    45    1
    63    32    33    1
    64    32    41    1
    65    32    91    1
    66    33    35    1
    67    33    42    1
    68    33    50    1
    69    34    37    1
    70    34    43    1
    71    34    51    1
    72    35    38    1
    73    35    39    1
    74    35    92    1
    75    36    38    1
    76    36    93    1
    77    36    94    1
    78    37    40    1
    79    37    48    2
    80    38    95    1
    81    38    96    1
    82    39    47    1
    83    39    56    1
    84    39    57    1
    85    40    44    1
    86    40    52    1
    87    40    97    1
    88    41    48    1
    89    41    98    1
    90    41    99    1
    91    42    49    1
    92    42   100    1
    93    42   101    1
    94    43    46    1
    95    43   102    1
    96    43   103    1
    97    44    46    1
    98    44    53    1
    99    44    58    1
   100    45   104    1
   101    45   105    1
   102    45   106    1
   103    46   107    1
   104    46   108    1
   105    47    49    1
   106    47   109    1
   107    48   110    1
   108    49   111    1
   109    50   112    1
   110    50   113    1
   111    50   114    1
   112    51   115    1
   113    51   116    1
   114    51   117    1
   115    52    54    1
   116    52   118    1
   117    52   119    1
   118    53    55    1
   119    53   120    1
   120    53   121    1
   121    54    55    1
   122    54    59    1
   123    54    60    1
   124    55   122    1
   125    55   123    1
   126    56   124    1
   127    56   125    1
   128    56   126    1
   129    59   130    1
   130    59   131    1
   131    59   132    1
   132    60   127    1
   133    60   128    1
   134    60   129    1
   135    61    62    1
   136    61   134    1
   137    62    64    1
   138    62   136    1
   139    63    67    1
   140    63   137    1
   141    64    66    1
   142    64   138    1
   143    65    66    1
   144    65    70    1
   145    65   139    1
   146    66   140    1
   147    67    68    1
   148    67   141    1
   149    68    71    1
   150    68   142    1
   151    69    71    1
   152    69    74    1
   153    69   143    1
   154    70   144    1
   155    70   145    1
   156    71   146    1
   157    72    73    1
   158    72   147    1
   159    73    75    1
   160    73   151    1
   161    74   152    1
   162    74   153    1
   163    75    77    1
   164    75   155    1
   165    76    77    1
   166    76    78    1
   167    76   158    1
   168    77   159    1
   169    78   161    1
   170    78   162    1
   171    79    81    1
   172    79   163    1
   173    80    82    1
   174    80   165    1
   175    81    83    1
   176    81   166    1
   177    82    86    1
   178    82   168    1
   179    83    85    1
   180    83   169    1
   181    84    85    1
   182    84    89    1
   183    84   170    1
   184    85   171    1
   185    86    88    1
   186    86   172    1
   187    87    88    1
   188    87    90    1
   189    87   173    1
   190    88   174    1
   191    89   176    1
   192    89   177    1
   193    90   181    1
   194    90   182    1
   195    90   183    1
