@<TRIPOS>MOLECULE
IMPHY009925
 66 68 0 0 0
SMALL
GASTEIGER

@<TRIPOS>ATOM
      1 O           3.3660   -1.6160    0.0000 O.3     1  UNL1       -0.3653
      2 O          12.5263   -0.7500    0.0000 O.3     1  UNL1       -0.4810
      3 O          16.0183   -0.7847    0.0000 O.2     1  UNL1       -0.4183
      4 O          14.2583   -1.7500    0.0000 O.3     1  UNL1       -0.4884
      5 O          12.5263    1.2500    0.0000 O.3     1  UNL1       -0.4913
      6 O          17.7885   -0.7742    0.0000 O.2     1  UNL1       -0.2452
      7 C           2.8660   -0.7500    0.0000 C.3     1  UNL1        0.0904
      8 C           3.8660   -0.7500    0.0000 C.3     1  UNL1        0.0881
      9 C           4.7320   -0.2500    0.0000 C.3     1  UNL1       -0.0202
     10 C           2.0000   -1.2500    0.0000 C.3     1  UNL1       -0.0336
     11 C           2.8660    0.2500    0.0000 C.3     1  UNL1       -0.0336
     12 C           5.5981   -0.7500    0.0000 C.3     1  UNL1       -0.0296
     13 C           6.4641   -0.2500    0.0000 C.2     1  UNL1       -0.0764
     14 C           7.3301   -0.7500    0.0000 C.2     1  UNL1       -0.0847
     15 C           6.4641    0.7500    0.0000 C.3     1  UNL1       -0.0438
     16 C           8.1962   -0.2500    0.0000 C.3     1  UNL1       -0.0308
     17 C           9.0622   -0.7500    0.0000 C.3     1  UNL1       -0.0285
     18 C           9.9282   -0.2500    0.0000 C.2     1  UNL1       -0.0731
     19 C          10.7942   -0.7500    0.0000 C.2     1  UNL1       -0.0481
     20 C           9.9282    0.7500    0.0000 C.3     1  UNL1       -0.0437
     21 C          11.6603   -0.2500    0.0000 C.3     1  UNL1        0.1084
     22 C          13.3923   -0.2500    0.0000 C.ar    1  UNL1        0.2079
     23 C          14.2583   -0.7500    0.0000 C.ar    1  UNL1        0.2086
     24 C          15.1244   -0.2500    0.0000 C.ar    1  UNL1        0.1843
     25 C          13.3923    0.7500    0.0000 C.ar    1  UNL1        0.1660
     26 C          15.1244    0.7500    0.0000 C.ar    1  UNL1        0.0250
     27 C          14.2583    1.2500    0.0000 C.ar    1  UNL1       -0.0054
     28 C          16.0183    1.2847    0.0000 C.ar    1  UNL1       -0.0441
     29 C          16.9244    0.7708    0.0000 C.ar    1  UNL1        0.0236
     30 C          16.9244   -0.2708    0.0000 C.ar    1  UNL1        0.3373
     31 C          13.3923   -2.2500    0.0000 C.3     1  UNL1        0.0791
     32 C          12.5263    2.2500    0.0000 C.3     1  UNL1        0.0790
     33 H           4.3044   -1.1884    0.0000 H       1  UNL1        0.0625
     34 H           5.1306    0.2249    0.0000 H       1  UNL1        0.0294
     35 H           4.3335    0.2249    0.0000 H       1  UNL1        0.0294
     36 H           1.6900   -0.7131    0.0000 H       1  UNL1        0.0258
     37 H           1.4631   -1.5600    0.0000 H       1  UNL1        0.0258
     38 H           3.4860    0.2500    0.0000 H       1  UNL1        0.0258
     39 H           2.8660    0.8700    0.0000 H       1  UNL1        0.0258
     40 H           2.2460    0.2500    0.0000 H       1  UNL1        0.0258
     41 H           2.3100   -1.7869    0.0000 H       1  UNL1        0.0258
     42 H           5.1996   -1.2250    0.0000 H       1  UNL1        0.0311
     43 H           5.9966   -1.2250    0.0000 H       1  UNL1        0.0311
     44 H           7.3301   -1.3700    0.0000 H       1  UNL1        0.0572
     45 H           7.0841    0.7500    0.0000 H       1  UNL1        0.0274
     46 H           6.4641    1.3700    0.0000 H       1  UNL1        0.0274
     47 H           5.8441    0.7500    0.0000 H       1  UNL1        0.0274
     48 H           8.5947    0.2249    0.0000 H       1  UNL1        0.0310
     49 H           7.7976    0.2249    0.0000 H       1  UNL1        0.0310
     50 H           8.6636   -1.2250    0.0000 H       1  UNL1        0.0313
     51 H           9.4607   -1.2250    0.0000 H       1  UNL1        0.0313
     52 H          10.7942   -1.3700    0.0000 H       1  UNL1        0.0605
     53 H          10.5482    0.7500    0.0000 H       1  UNL1        0.0274
     54 H           9.9282    1.3700    0.0000 H       1  UNL1        0.0274
     55 H           9.3082    0.7500    0.0000 H       1  UNL1        0.0274
     56 H          12.0588    0.2249    0.0000 H       1  UNL1        0.0742
     57 H          11.2617    0.2249    0.0000 H       1  UNL1        0.0742
     58 H          14.2583    1.8700    0.0000 H       1  UNL1        0.0662
     59 H          16.0111    1.9046    0.0000 H       1  UNL1        0.0627
     60 H          17.4601    1.0829    0.0000 H       1  UNL1        0.0689
     61 H          13.0823   -1.7131    0.0000 H       1  UNL1        0.0660
     62 H          12.8554   -2.5600    0.0000 H       1  UNL1        0.0660
     63 H          13.7023   -2.7869    0.0000 H       1  UNL1        0.0660
     64 H          13.1463    2.2500    0.0000 H       1  UNL1        0.0660
     65 H          12.5263    2.8700    0.0000 H       1  UNL1        0.0660
     66 H          11.9063    2.2500    0.0000 H       1  UNL1        0.0660
@<TRIPOS>BOND
     1     1     7    1
     2     1     8    1
     3     2    21    1
     4     2    22    1
     5     3    24   ar
     6     3    30   ar
     7     4    23    1
     8     4    31    1
     9     5    25    1
    10     5    32    1
    11     6    30    2
    12     7     8    1
    13     7    10    1
    14     7    11    1
    15     8     9    1
    16     8    33    1
    17     9    12    1
    18     9    34    1
    19     9    35    1
    20    10    36    1
    21    10    37    1
    22    10    41    1
    23    11    38    1
    24    11    39    1
    25    11    40    1
    26    12    13    1
    27    12    42    1
    28    12    43    1
    29    13    14    2
    30    13    15    1
    31    14    16    1
    32    14    44    1
    33    15    45    1
    34    15    46    1
    35    15    47    1
    36    16    17    1
    37    16    48    1
    38    16    49    1
    39    17    18    1
    40    17    50    1
    41    17    51    1
    42    18    19    2
    43    18    20    1
    44    19    21    1
    45    19    52    1
    46    20    53    1
    47    20    54    1
    48    20    55    1
    49    21    56    1
    50    21    57    1
    51    22    23   ar
    52    22    25   ar
    53    23    24   ar
    54    24    26   ar
    55    25    27   ar
    56    26    27   ar
    57    26    28   ar
    58    27    58    1
    59    28    29   ar
    60    28    59    1
    61    29    30   ar
    62    29    60    1
    63    31    61    1
    64    31    62    1
    65    31    63    1
    66    32    64    1
    67    32    65    1
    68    32    66    1
