@<TRIPOS>MOLECULE
IMPHY003275
 31 33 0 0 0
SMALL
GASTEIGER

@<TRIPOS>ATOM
      1 O           7.3424    0.0721    0.0000 O.3     1  UNL1       -0.4489
      2 O           7.3424   -1.5374    0.0000 O.3     1  UNL1       -0.4525
      3 O           5.5301    1.2673    0.0000 O.3     1  UNL1       -0.4910
      4 N           2.8641   -0.2119    0.0000 N.3     1  UNL1       -0.3007
      5 C           4.6641   -0.2327    0.0000 C.ar    1  UNL1        0.0153
      6 C           4.6641   -1.2327    0.0000 C.ar    1  UNL1       -0.0346
      7 C           3.7702   -1.7673    0.0000 C.3     1  UNL1       -0.0143
      8 C           3.7702    0.3020    0.0000 C.3     1  UNL1        0.0276
      9 C           2.8641   -1.2535    0.0000 C.3     1  UNL1        0.0029
     10 C           5.5301    0.2673    0.0000 C.ar    1  UNL1        0.1699
     11 C           5.5301   -1.7327    0.0000 C.ar    1  UNL1       -0.0124
     12 C           6.3961   -0.2327    0.0000 C.ar    1  UNL1        0.2078
     13 C           6.3961   -1.2327    0.0000 C.ar    1  UNL1        0.1702
     14 C           2.0000    0.2915    0.0000 C.3     1  UNL1       -0.0124
     15 C           7.9260   -0.7327    0.0000 C.3     1  UNL1        0.2334
     16 C           6.3961    1.7673    0.0000 C.3     1  UNL1        0.0790
     17 H           3.3765   -2.2464    0.0000 H       1  UNL1        0.0326
     18 H           4.1748   -2.2371    0.0000 H       1  UNL1        0.0326
     19 H           4.1748    0.7718    0.0000 H       1  UNL1        0.0477
     20 H           3.3765    0.7810    0.0000 H       1  UNL1        0.0477
     21 H           2.2532   -1.1474    0.0000 H       1  UNL1        0.0430
     22 H           2.6550   -1.8372    0.0000 H       1  UNL1        0.0430
     23 H           5.5301   -2.3527    0.0000 H       1  UNL1        0.0658
     24 H           2.3121    0.8272    0.0000 H       1  UNL1        0.0391
     25 H           1.4643    0.6035    0.0000 H       1  UNL1        0.0391
     26 H           1.6879   -0.2443    0.0000 H       1  UNL1        0.0391
     27 H           8.3869   -1.1474    0.0000 H       1  UNL1        0.1166
     28 H           8.3869   -0.3179    0.0000 H       1  UNL1        0.1166
     29 H           6.7062    1.2304    0.0000 H       1  UNL1        0.0660
     30 H           6.9331    2.0773    0.0000 H       1  UNL1        0.0660
     31 H           6.0862    2.3043    0.0000 H       1  UNL1        0.0660
@<TRIPOS>BOND
     1     1    12    1
     2     1    15    1
     3     2    13    1
     4     2    15    1
     5     3    10    1
     6     3    16    1
     7     4     8    1
     8     4     9    1
     9     4    14    1
    10     5     6   ar
    11     5     8    1
    12     5    10   ar
    13     6     7    1
    14     6    11   ar
    15     7     9    1
    16     7    17    1
    17     7    18    1
    18     8    19    1
    19     8    20    1
    20     9    21    1
    21     9    22    1
    22    10    12   ar
    23    11    13   ar
    24    11    23    1
    25    12    13   ar
    26    14    24    1
    27    14    25    1
    28    14    26    1
    29    15    27    1
    30    15    28    1
    31    16    29    1
    32    16    30    1
    33    16    31    1
