@<TRIPOS>MOLECULE
IMPHY014312
 70 72 0 0 0
SMALL
GASTEIGER

@<TRIPOS>ATOM
      1 O           5.8207    0.0561    0.0000 O.3     1  UNL1       -0.3878
      2 O           6.4562   -3.4523    0.0000 O.3     1  UNL1       -0.4574
      3 O           4.6208    0.3923    0.0000 O.3     1  UNL1       -0.4572
      4 O           8.0999   -2.9060    0.0000 O.2     1  UNL1       -0.2453
      5 O           2.9303    0.7692    0.0000 O.2     1  UNL1       -0.2449
      6 O           6.2279    3.6198    0.0000 O.3     1  UNL1       -0.5033
      7 O           4.7550    4.9729    0.0000 O.3     1  UNL1       -0.5033
      8 C           5.1931   -2.2033    0.0000 C.3     1  UNL1        0.0173
      9 C           5.1881   -1.2034    0.0000 C.3     1  UNL1        0.0346
     10 C           6.1328   -0.8939    0.0000 C.3     1  UNL1        0.0786
     11 C           6.1408   -2.5034    0.0000 C.3     1  UNL1        0.1121
     12 C           6.7204   -1.6957    0.0000 C.3     1  UNL1        0.0145
     13 C           4.4032   -0.5838    0.0000 C.3     1  UNL1        0.1131
     14 C           4.4144   -2.8307    0.0000 C.3     1  UNL1       -0.0253
     15 C           6.9399   -0.3035    0.0000 C.3     1  UNL1       -0.0173
     16 C           5.1981   -3.2033    0.0000 C.3     1  UNL1       -0.0554
     17 C           3.4294   -0.8112    0.0000 C.3     1  UNL1        0.0057
     18 C           3.4384   -2.6131    0.0000 C.2     1  UNL1       -0.0843
     19 C           3.0000   -1.7143    0.0000 C.2     1  UNL1       -0.0730
     20 C           7.8548   -0.7073    0.0000 C.3     1  UNL1       -0.0600
     21 C           6.8321    0.6907    0.0000 C.3     1  UNL1       -0.0600
     22 C           2.0000   -1.7193    0.0000 C.3     1  UNL1       -0.0437
     23 C           7.4357   -3.6536    0.0000 C.2     1  UNL1        0.3348
     24 C           3.8844    1.0688    0.0000 C.2     1  UNL1        0.3396
     25 C           7.7511   -4.6026    0.0000 C.2     1  UNL1        0.0293
     26 C           4.1021    2.0448    0.0000 C.ar    1  UNL1        0.0627
     27 C           7.0870   -5.3502    0.0000 C.3     1  UNL1       -0.0333
     28 C           8.7307   -4.8040    0.0000 C.2     1  UNL1       -0.0774
     29 C           5.0562    2.3443    0.0000 C.ar    1  UNL1       -0.0026
     30 C           3.3656    2.7213    0.0000 C.ar    1  UNL1       -0.0441
     31 C           9.3948   -4.0563    0.0000 C.3     1  UNL1       -0.0461
     32 C           5.2738    3.3203    0.0000 C.ar    1  UNL1        0.1590
     33 C           3.5833    3.6973    0.0000 C.ar    1  UNL1       -0.0158
     34 C           4.5374    3.9968    0.0000 C.ar    1  UNL1        0.1583
     35 H           5.3368   -0.3665    0.0000 H       1  UNL1        0.0371
     36 H           6.7538   -2.5965    0.0000 H       1  UNL1        0.0740
     37 H           7.1833   -2.1081    0.0000 H       1  UNL1        0.0329
     38 H           7.1792   -1.2787    0.0000 H       1  UNL1        0.0329
     39 H           3.9626   -0.1476    0.0000 H       1  UNL1        0.0741
     40 H           4.1482   -3.3907    0.0000 H       1  UNL1        0.0314
     41 H           4.9010   -3.2149    0.0000 H       1  UNL1        0.0314
     42 H           7.4403    0.0626    0.0000 H       1  UNL1        0.0323
     43 H           4.5781   -3.2064    0.0000 H       1  UNL1        0.0236
     44 H           5.2012   -3.8233    0.0000 H       1  UNL1        0.0236
     45 H           5.8181   -3.2002    0.0000 H       1  UNL1        0.0236
     46 H           3.4263   -0.1912    0.0000 H       1  UNL1        0.0346
     47 H           2.8242   -0.6762    0.0000 H       1  UNL1        0.0346
     48 H           3.0542   -3.0997    0.0000 H       1  UNL1        0.0572
     49 H           6.2340    0.5182    0.0000 H       1  UNL1        0.2102
     50 H           7.6044   -1.2745    0.0000 H       1  UNL1        0.0233
     51 H           8.4220   -0.9576    0.0000 H       1  UNL1        0.0233
     52 H           8.1051   -0.1400    0.0000 H       1  UNL1        0.0233
     53 H           7.4485    0.7575    0.0000 H       1  UNL1        0.0233
     54 H           6.7653    1.3071    0.0000 H       1  UNL1        0.0233
     55 H           6.2157    0.6239    0.0000 H       1  UNL1        0.0233
     56 H           1.9969   -1.0993    0.0000 H       1  UNL1        0.0274
     57 H           1.3800   -1.7224    0.0000 H       1  UNL1        0.0274
     58 H           2.0031   -2.3392    0.0000 H       1  UNL1        0.0274
     59 H           6.6235   -4.9385    0.0000 H       1  UNL1        0.0280
     60 H           6.6753   -5.8138    0.0000 H       1  UNL1        0.0280
     61 H           7.5506   -5.7620    0.0000 H       1  UNL1        0.0280
     62 H           8.9262   -5.3923    0.0000 H       1  UNL1        0.0574
     63 H           5.5127    1.9249    0.0000 H       1  UNL1        0.0663
     64 H           2.7741    2.5356    0.0000 H       1  UNL1        0.0627
     65 H           9.8583   -4.4681    0.0000 H       1  UNL1        0.0272
     66 H           9.8066   -3.5928    0.0000 H       1  UNL1        0.0272
     67 H           8.9313   -3.6446    0.0000 H       1  UNL1        0.0272
     68 H           3.1267    4.1168    0.0000 H       1  UNL1        0.0655
     69 H           6.3628    4.2250    0.0000 H       1  UNL1        0.2923
     70 H           4.2984    5.3923    0.0000 H       1  UNL1        0.2923
@<TRIPOS>BOND
     1    10     1    1
     2     1    49    1
     3    11     2    1
     4     2    23    1
     5    13     3    1
     6     3    24    1
     7     4    23    2
     8     5    24    2
     9     6    32    1
    10     6    69    1
    11     7    34    1
    12     7    70    1
    13     8     9    1
    14     8    11    1
    15     8    14    1
    16     8    16    1
    17     9    10    1
    18     9    13    1
    19     9    35    1
    20    10    12    1
    21    10    15    1
    22    11    12    1
    23    11    36    1
    24    12    37    1
    25    12    38    1
    26    13    17    1
    27    13    39    1
    28    14    18    1
    29    14    40    1
    30    14    41    1
    31    15    20    1
    32    15    21    1
    33    15    42    1
    34    16    43    1
    35    16    44    1
    36    16    45    1
    37    17    19    1
    38    17    46    1
    39    17    47    1
    40    18    19    2
    41    18    48    1
    42    19    22    1
    43    20    50    1
    44    20    51    1
    45    20    52    1
    46    21    53    1
    47    21    54    1
    48    21    55    1
    49    22    56    1
    50    22    57    1
    51    22    58    1
    52    23    25    1
    53    24    26    1
    54    25    27    1
    55    25    28    2
    56    26    29   ar
    57    26    30   ar
    58    27    59    1
    59    27    60    1
    60    27    61    1
    61    28    31    1
    62    28    62    1
    63    29    32   ar
    64    29    63    1
    65    30    33   ar
    66    30    64    1
    67    31    65    1
    68    31    66    1
    69    31    67    1
    70    32    34   ar
    71    33    34   ar
    72    33    68    1
