@<TRIPOS>MOLECULE
IMPHY016255
 26 25 0 0 0
SMALL
GASTEIGER

@<TRIPOS>ATOM
      1 O           5.4641   -0.7500    0.0000 O.2     1  UNL1       -0.2927
      2 C           3.7320    0.2500    0.0000 C.3     1  UNL1       -0.0463
      3 C           4.5981    0.7500    0.0000 C.3     1  UNL1        0.0099
      4 C           2.8660    0.7500    0.0000 C.3     1  UNL1       -0.0555
      5 C           5.4641    0.2500    0.0000 C.2     1  UNL1        0.1560
      6 C           2.0000    0.2500    0.0000 C.3     1  UNL1       -0.0653
      7 C           6.3301    0.7500    0.0000 C.2     1  UNL1       -0.0205
      8 C           7.1962    0.2500    0.0000 C.2     1  UNL1       -0.0724
      9 C           8.0622    0.7500    0.0000 C.3     1  UNL1       -0.0437
     10 C           7.1962   -0.7500    0.0000 C.3     1  UNL1       -0.0437
     11 H           3.3335   -0.2249    0.0000 H       1  UNL1        0.0269
     12 H           4.1306   -0.2249    0.0000 H       1  UNL1        0.0269
     13 H           4.9966    1.2250    0.0000 H       1  UNL1        0.0345
     14 H           4.1996    1.2250    0.0000 H       1  UNL1        0.0345
     15 H           3.2646    1.2250    0.0000 H       1  UNL1        0.0263
     16 H           2.4675    1.2250    0.0000 H       1  UNL1        0.0263
     17 H           1.6900    0.7869    0.0000 H       1  UNL1        0.0230
     18 H           1.4631   -0.0600    0.0000 H       1  UNL1        0.0230
     19 H           2.3100   -0.2869    0.0000 H       1  UNL1        0.0230
     20 H           6.3301    1.3700    0.0000 H       1  UNL1        0.0652
     21 H           8.3722    0.2131    0.0000 H       1  UNL1        0.0274
     22 H           8.5991    1.0600    0.0000 H       1  UNL1        0.0274
     23 H           7.7522    1.2869    0.0000 H       1  UNL1        0.0274
     24 H           6.5762   -0.7500    0.0000 H       1  UNL1        0.0274
     25 H           7.1962   -1.3700    0.0000 H       1  UNL1        0.0274
     26 H           7.8162   -0.7500    0.0000 H       1  UNL1        0.0274
@<TRIPOS>BOND
     1     1     5    2
     2     2     3    1
     3     2     4    1
     4     2    11    1
     5     2    12    1
     6     3     5    1
     7     3    13    1
     8     3    14    1
     9     4     6    1
    10     4    15    1
    11     4    16    1
    12     5     7    1
    13     6    17    1
    14     6    18    1
    15     6    19    1
    16     7     8    2
    17     7    20    1
    18     8     9    1
    19     8    10    1
    20     9    21    1
    21     9    22    1
    22     9    23    1
    23    10    24    1
    24    10    25    1
    25    10    26    1
