@<TRIPOS>MOLECULE
IMPHY012502
 74 79 0 0 0
SMALL
GASTEIGER

@<TRIPOS>ATOM
      1 O           8.7141   -1.1020    0.0000 O.3     1  UNL1       -0.3908
      2 O           6.8671   -1.0324    0.0000 O.3     1  UNL1       -0.3405
      3 O          10.2826    3.8161    0.0000 O.3     1  UNL1       -0.4345
      4 O           8.4771    3.7252    0.0000 O.3     1  UNL1       -0.3574
      5 O          12.0220    3.3235    0.0000 O.2     1  UNL1       -0.2501
      6 O           5.1350   -1.0324    0.0000 O.3     1  UNL1       -0.3405
      7 O           6.8671   -3.0324    0.0000 O.3     1  UNL1       -0.3841
      8 O           5.1350   -4.0324    0.0000 O.3     1  UNL1       -0.3864
      9 O           3.4030   -3.0324    0.0000 O.3     1  UNL1       -0.3865
     10 O           2.5369   -1.5324    0.0000 O.3     1  UNL1       -0.3924
     11 C           7.7680    0.4015    0.0000 C.3     1  UNL1        0.0309
     12 C           8.9809    1.4630    0.0000 C.3     1  UNL1       -0.0139
     13 C           7.9906    1.3764    0.0000 C.3     1  UNL1       -0.0241
     14 C           9.3708    0.5485    0.0000 C.3     1  UNL1       -0.0082
     15 C           8.6227   -0.1062    0.0000 C.3     1  UNL1        0.0671
     16 C           9.5898    2.3004    0.0000 C.3     1  UNL1        0.0429
     17 C           6.9146    1.2187    0.0000 C.3     1  UNL1       -0.0354
     18 C           6.8671   -0.0324    0.0000 C.3     1  UNL1        0.0911
     19 C           7.3671    2.1582    0.0000 C.3     1  UNL1       -0.0485
     20 C           5.7436    1.3764    0.0000 C.3     1  UNL1       -0.0170
     21 C          10.6187    2.1838    0.0000 C.3     1  UNL1        0.0740
     22 C          10.3967    0.4082    0.0000 C.3     1  UNL1       -0.0463
     23 C           6.3671    2.1582    0.0000 C.3     1  UNL1       -0.0461
     24 C           8.5886    2.3828    0.0000 C.3     1  UNL1       -0.0585
     25 C          11.0248    1.2313    0.0000 C.3     1  UNL1       -0.0367
     26 C           5.9661    0.4015    0.0000 C.2     1  UNL1       -0.0445
     27 C           9.3866    3.3095    0.0000 C.3     1  UNL1        0.2066
     28 C          11.0426    3.1218    0.0000 C.2     1  UNL1        0.3157
     29 C          11.6123    2.0712    0.0000 C.3     1  UNL1       -0.0489
     30 C           5.1843   -0.2220    0.0000 C.2     1  UNL1       -0.0967
     31 C           6.0010   -1.5324    0.0000 C.3     1  UNL1        0.1886
     32 C           6.0010   -2.5324    0.0000 C.3     1  UNL1        0.1341
     33 C           5.1350   -3.0324    0.0000 C.3     1  UNL1        0.1141
     34 C           4.2690   -1.5324    0.0000 C.3     1  UNL1        0.1130
     35 C           4.2690   -2.5324    0.0000 C.3     1  UNL1        0.1119
     36 C           3.4030   -1.0324    0.0000 C.3     1  UNL1        0.0730
     37 H           8.2350    1.9462    0.0000 H       1  UNL1        0.0313
     38 H           9.5489   -0.0453    0.0000 H       1  UNL1        0.0331
     39 H           9.1984   -0.3362    0.0000 H       1  UNL1        0.0603
     40 H          10.1645    2.9267    0.0000 H       1  UNL1        0.0377
     41 H           7.4607    1.5124    0.0000 H       1  UNL1        0.0278
     42 H           6.8038    1.8287    0.0000 H       1  UNL1        0.0278
     43 H           7.3920   -0.3623    0.0000 H       1  UNL1        0.0650
     44 H           7.9257    2.4272    0.0000 H       1  UNL1        0.0268
     45 H           7.2291    2.7627    0.0000 H       1  UNL1        0.0268
     46 H           4.9778    1.7452    0.0000 H       1  UNL1        0.0347
     47 H          10.2088   -0.1827    0.0000 H       1  UNL1        0.0269
     48 H          10.9466    0.1219    0.0000 H       1  UNL1        0.0269
     49 H           6.5050    2.7627    0.0000 H       1  UNL1        0.0271
     50 H           5.8085    2.4272    0.0000 H       1  UNL1        0.0271
     51 H           9.1590    2.6260    0.0000 H       1  UNL1        0.0235
     52 H           8.3454    2.9531    0.0000 H       1  UNL1        0.0235
     53 H           8.0183    2.1396    0.0000 H       1  UNL1        0.0235
     54 H          11.4461    0.7764    0.0000 H       1  UNL1        0.0276
     55 H          11.5451    1.5685    0.0000 H       1  UNL1        0.0276
     56 H           8.9008    2.9243    0.0000 H       1  UNL1        0.1058
     57 H           9.2771   -1.3616    0.0000 H       1  UNL1        0.2098
     58 H          11.5425    1.4552    0.0000 H       1  UNL1        0.0240
     59 H          12.2284    2.0014    0.0000 H       1  UNL1        0.0240
     60 H          11.6822    2.6873    0.0000 H       1  UNL1        0.0240
     61 H           4.6071    0.0045    0.0000 H       1  UNL1        0.0535
     62 H           5.2767   -0.8351    0.0000 H       1  UNL1        0.0535
     63 H           6.0010   -0.9124    0.0000 H       1  UNL1        0.0938
     64 H           8.4184    4.3424    0.0000 H       1  UNL1        0.2135
     65 H           6.0010   -3.1524    0.0000 H       1  UNL1        0.0671
     66 H           4.5981   -3.3424    0.0000 H       1  UNL1        0.0648
     67 H           4.2690   -0.9124    0.0000 H       1  UNL1        0.0647
     68 H           4.2690   -3.1524    0.0000 H       1  UNL1        0.0647
     69 H           6.8671   -3.6524    0.0000 H       1  UNL1        0.2101
     70 H           3.8015   -0.5575    0.0000 H       1  UNL1        0.0584
     71 H           3.0044   -0.5575    0.0000 H       1  UNL1        0.0584
     72 H           4.5981   -4.3424    0.0000 H       1  UNL1        0.2100
     73 H           3.4030   -3.6524    0.0000 H       1  UNL1        0.2100
     74 H           2.0000   -1.2224    0.0000 H       1  UNL1        0.2095
@<TRIPOS>BOND
     1    15     1    1
     2     1    57    1
     3    18     2    1
     4     2    31    1
     5     3    27    1
     6     3    28    1
     7    27     4    1
     8     4    64    1
     9     5    28    2
    10     6    31    1
    11     6    34    1
    12     7    32    1
    13     7    69    1
    14     8    33    1
    15     8    72    1
    16     9    35    1
    17     9    73    1
    18    10    36    1
    19    10    74    1
    20    11    13    1
    21    11    15    1
    22    11    17    1
    23    11    18    1
    24    12    13    1
    25    12    14    1
    26    12    16    1
    27    12    24    1
    28    13    19    1
    29    13    37    1
    30    14    15    1
    31    14    22    1
    32    14    38    1
    33    15    39    1
    34    16    21    1
    35    16    27    1
    36    16    40    1
    37    17    20    1
    38    17    41    1
    39    17    42    1
    40    18    26    1
    41    18    43    1
    42    19    23    1
    43    19    44    1
    44    19    45    1
    45    20    23    1
    46    20    26    1
    47    20    46    1
    48    21    25    1
    49    21    28    1
    50    21    29    1
    51    22    25    1
    52    22    47    1
    53    22    48    1
    54    23    49    1
    55    23    50    1
    56    24    51    1
    57    24    52    1
    58    24    53    1
    59    25    54    1
    60    25    55    1
    61    26    30    2
    62    27    56    1
    63    29    58    1
    64    29    59    1
    65    29    60    1
    66    30    61    1
    67    30    62    1
    68    31    32    1
    69    31    63    1
    70    32    33    1
    71    32    65    1
    72    33    35    1
    73    33    66    1
    74    34    35    1
    75    34    36    1
    76    34    67    1
    77    35    68    1
    78    36    70    1
    79    36    71    1
