@<TRIPOS>MOLECULE
IMPHY000404
 26 26 0 0 0
SMALL
GASTEIGER

@<TRIPOS>ATOM
      1 S           5.4641   -1.0000    0.0000 S.3     1  UNL1       -0.1265
      2 O           6.3301    0.5000    0.0000 O.3     1  UNL1       -0.3663
      3 C           4.5981   -0.5000    0.0000 C.3     1  UNL1        0.0097
      4 C           4.5981    0.5000    0.0000 C.3     1  UNL1       -0.0175
      5 C           3.7320   -1.0000    0.0000 C.3     1  UNL1       -0.0412
      6 C           5.4641    1.0000    0.0000 C.3     1  UNL1        0.0501
      7 C           6.3301   -0.5000    0.0000 C.3     1  UNL1        0.1015
      8 C           2.8660   -0.5000    0.0000 C.3     1  UNL1       -0.0549
      9 C           7.1962   -1.0000    0.0000 C.3     1  UNL1       -0.0292
     10 C           2.0000   -1.0000    0.0000 C.3     1  UNL1       -0.0652
     11 H           4.5981   -1.3500    0.0000 H       1  UNL1        0.0414
     12 H           4.3860    1.0826    0.0000 H       1  UNL1        0.0298
     13 H           3.9875    0.3923    0.0000 H       1  UNL1        0.0298
     14 H           3.3335   -1.4750    0.0000 H       1  UNL1        0.0276
     15 H           4.1306   -1.4750    0.0000 H       1  UNL1        0.0276
     16 H           5.8626    1.4750    0.0000 H       1  UNL1        0.0560
     17 H           5.0656    1.4750    0.0000 H       1  UNL1        0.0560
     18 H           7.0662   -0.0750    0.0000 H       1  UNL1        0.0709
     19 H           3.2646   -0.0251    0.0000 H       1  UNL1        0.0263
     20 H           2.4675   -0.0251    0.0000 H       1  UNL1        0.0263
     21 H           6.8862   -1.5369    0.0000 H       1  UNL1        0.0263
     22 H           7.7331   -1.3100    0.0000 H       1  UNL1        0.0263
     23 H           7.5062   -0.4631    0.0000 H       1  UNL1        0.0263
     24 H           1.6900   -0.4631    0.0000 H       1  UNL1        0.0230
     25 H           1.4631   -1.3100    0.0000 H       1  UNL1        0.0230
     26 H           2.3100   -1.5369    0.0000 H       1  UNL1        0.0230
@<TRIPOS>BOND
     1     1     3    1
     2     1     7    1
     3     2     6    1
     4     2     7    1
     5     3     4    1
     6     3     5    1
     7     3    11    1
     8     4     6    1
     9     4    12    1
    10     4    13    1
    11     5     8    1
    12     5    14    1
    13     5    15    1
    14     6    16    1
    15     6    17    1
    16     7     9    1
    17     7    18    1
    18     8    10    1
    19     8    19    1
    20     8    20    1
    21     9    21    1
    22     9    22    1
    23     9    23    1
    24    10    24    1
    25    10    25    1
    26    10    26    1
