@<TRIPOS>MOLECULE
IMPHY013005
 65 69 0 0 0
SMALL
GASTEIGER

@<TRIPOS>ATOM
      1 O           5.2671   -2.6091    0.0000 O.3     1  UNL1       -0.4862
      2 O           4.6194    1.6008    0.0000 O.3     1  UNL1       -0.4530
      3 O           2.8824   -2.3325    0.0000 O.3     1  UNL1       -0.4489
      4 O           2.2408   -0.7837    0.0000 O.3     1  UNL1       -0.4525
      5 O           4.6754   -2.5251    0.0000 O.2     1  UNL1       -0.2873
      6 O           5.5072   -3.8328    0.0000 O.2     1  UNL1       -0.4886
      7 O           7.5231   -3.7537    0.0000 O.2     1  UNL1       -0.4913
      8 O           5.8442    2.8256    0.0000 O.2     1  UNL1       -0.2453
      9 C           6.2504   -1.3367    0.0000 C.3     1  UNL1        0.1206
     10 C           7.1743    0.8937    0.0000 C.3     1  UNL1       -0.0339
     11 C           6.2504    1.2764    0.0000 C.3     1  UNL1        0.0005
     12 C           5.3266   -0.9540    0.0000 C.ar    1  UNL1        0.0259
     13 C           7.1743   -0.9540    0.0000 C.2     1  UNL1       -0.0444
     14 C           7.5570   -0.0301    0.0000 C.3     1  UNL1       -0.0270
     15 C           5.3266    0.8937    0.0000 C.3     1  UNL1        0.1317
     16 C           4.9439   -0.0301    0.0000 C.ar    1  UNL1        0.0047
     17 C           6.2202   -2.3294    0.0000 C.3     1  UNL1        0.1104
     18 C           4.7053   -1.7901    0.0000 C.ar    1  UNL1        0.1707
     19 C           5.6037   -2.1532    0.0000 C.2     1  UNL1        0.2187
     20 C           7.8814    1.6008    0.0000 C.3     1  UNL1       -0.0618
     21 C           6.2504    2.2764    0.0000 C.3     1  UNL1       -0.0585
     22 C           7.5877   -1.9101    0.0000 C.2     1  UNL1       -0.0156
     23 C           3.9134    0.1217    0.0000 C.ar    1  UNL1       -0.0089
     24 C           3.6715   -1.6621    0.0000 C.ar    1  UNL1        0.2079
     25 C           5.9723   -2.9475    0.0000 C.2     1  UNL1        0.2056
     26 C           3.2729   -0.6997    0.0000 C.ar    1  UNL1        0.1703
     27 C           6.9825   -2.9124    0.0000 C.2     1  UNL1        0.1650
     28 C           2.0000   -1.7907    0.0000 C.3     1  UNL1        0.2334
     29 C           4.8783    2.5668    0.0000 C.2     1  UNL1        0.3351
     30 C           4.1712    3.2739    0.0000 C.2     1  UNL1        0.0294
     31 C           6.0412   -4.6782    0.0000 C.3     1  UNL1        0.0791
     32 C           8.5219   -3.7063    0.0000 C.3     1  UNL1        0.0790
     33 C           3.2052    3.0151    0.0000 C.3     1  UNL1       -0.0333
     34 C           4.4300    4.2398    0.0000 C.2     1  UNL1       -0.0774
     35 C           5.3959    4.4986    0.0000 C.3     1  UNL1       -0.0461
     36 H           7.7824    0.7728    0.0000 H       1  UNL1        0.0305
     37 H           6.7659    1.6209    0.0000 H       1  UNL1        0.0340
     38 H           8.0489   -0.4076    0.0000 H       1  UNL1        0.0313
     39 H           8.0489    0.3473    0.0000 H       1  UNL1        0.0313
     40 H           4.7185    0.7728    0.0000 H       1  UNL1        0.0788
     41 H           6.3312   -2.9394    0.0000 H       1  UNL1        0.0713
     42 H           6.8384   -2.2831    0.0000 H       1  UNL1        0.0713
     43 H           8.3198    1.1624    0.0000 H       1  UNL1        0.0233
     44 H           8.3198    2.0392    0.0000 H       1  UNL1        0.0233
     45 H           7.4430    2.0392    0.0000 H       1  UNL1        0.0233
     46 H           6.8704    2.2764    0.0000 H       1  UNL1        0.0234
     47 H           6.2504    2.8964    0.0000 H       1  UNL1        0.0234
     48 H           5.6304    2.2764    0.0000 H       1  UNL1        0.0234
     49 H           8.2063   -1.9520    0.0000 H       1  UNL1        0.0655
     50 H           3.6827    0.6972    0.0000 H       1  UNL1        0.0659
     51 H           1.4155   -1.5839    0.0000 H       1  UNL1        0.1166
     52 H           1.7329   -2.3502    0.0000 H       1  UNL1        0.1166
     53 H           5.5170   -5.0093    0.0000 H       1  UNL1        0.0660
     54 H           6.3723   -5.2024    0.0000 H       1  UNL1        0.0660
     55 H           6.5654   -4.3471    0.0000 H       1  UNL1        0.0660
     56 H           8.5514   -4.3256    0.0000 H       1  UNL1        0.0660
     57 H           9.1412   -3.6768    0.0000 H       1  UNL1        0.0660
     58 H           8.4925   -3.0870    0.0000 H       1  UNL1        0.0660
     59 H           3.0448    3.6139    0.0000 H       1  UNL1        0.0280
     60 H           2.6064    2.8546    0.0000 H       1  UNL1        0.0280
     61 H           3.3657    2.4162    0.0000 H       1  UNL1        0.0280
     62 H           3.9916    4.6782    0.0000 H       1  UNL1        0.0574
     63 H           5.5564    3.8998    0.0000 H       1  UNL1        0.0272
     64 H           5.9948    4.6591    0.0000 H       1  UNL1        0.0272
     65 H           5.2354    5.0975    0.0000 H       1  UNL1        0.0272
@<TRIPOS>BOND
     1     1    17    1
     2     1    18    1
     3    15     2    1
     4     2    29    1
     5     3    24    1
     6     3    28    1
     7     4    26    1
     8     4    28    1
     9     5    19    2
    10     6    25    1
    11     6    31    1
    12     7    27    1
    13     7    32    1
    14     8    29    2
    15     9    12    1
    16     9    13    1
    17     9    17    1
    18     9    19    1
    19    10    11    1
    20    10    14    1
    21    10    20    1
    22    10    36    1
    23    11    15    1
    24    11    21    1
    25    11    37    1
    26    12    16   ar
    27    12    18   ar
    28    13    14    1
    29    13    22    2
    30    14    38    1
    31    14    39    1
    32    15    16    1
    33    15    40    1
    34    16    23   ar
    35    17    41    1
    36    17    42    1
    37    18    24   ar
    38    19    25    1
    39    20    43    1
    40    20    44    1
    41    20    45    1
    42    21    46    1
    43    21    47    1
    44    21    48    1
    45    22    27    1
    46    22    49    1
    47    23    26   ar
    48    23    50    1
    49    24    26   ar
    50    25    27    2
    51    28    51    1
    52    28    52    1
    53    29    30    1
    54    30    33    1
    55    30    34    2
    56    31    53    1
    57    31    54    1
    58    31    55    1
    59    32    56    1
    60    32    57    1
    61    32    58    1
    62    33    59    1
    63    33    60    1
    64    33    61    1
    65    34    35    1
    66    34    62    1
    67    35    63    1
    68    35    64    1
    69    35    65    1
