@<TRIPOS>MOLECULE
IMPHY012801
 34 36 0 0 0
SMALL
GASTEIGER

@<TRIPOS>ATOM
      1 O           6.0682   -0.7123    0.0000 O.2     1  UNL1       -0.4507
      2 O           4.3198    2.3223    0.0000 O.3     1  UNL1       -0.4942
      3 O           7.8003    1.2877    0.0000 O.3     1  UNL1       -0.5007
      4 O           6.0682    2.2877    0.0000 O.2     1  UNL1       -0.2830
      5 O           2.5381   -0.7364    0.0000 O.3     1  UNL1       -0.5065
      6 O          10.3984   -2.2123    0.0000 O.3     1  UNL1       -0.5068
      7 C           5.2022    0.7877    0.0000 C.ar    1  UNL1        0.1094
      8 C           5.2022   -0.2123    0.0000 C.ar    1  UNL1        0.1465
      9 C           6.9343   -0.2123    0.0000 C.ar    1  UNL1        0.1806
     10 C           6.0682    1.2877    0.0000 C.ar    1  UNL1        0.2379
     11 C           4.3083    1.3224    0.0000 C.ar    1  UNL1        0.1380
     12 C           6.9343    0.7877    0.0000 C.ar    1  UNL1        0.2082
     13 C           7.8003   -0.7123    0.0000 C.ar    1  UNL1        0.0213
     14 C           4.3083   -0.7469    0.0000 C.ar    1  UNL1        0.0231
     15 C           3.4022    0.8085    0.0000 C.ar    1  UNL1        0.0225
     16 C           3.4022   -0.2331    0.0000 C.ar    1  UNL1        0.1239
     17 C           8.6663   -0.2123    0.0000 C.ar    1  UNL1       -0.0475
     18 C           7.8003   -1.7123    0.0000 C.ar    1  UNL1       -0.0475
     19 C           9.5323   -0.7123    0.0000 C.ar    1  UNL1       -0.0195
     20 C           8.6663   -2.2123    0.0000 C.ar    1  UNL1       -0.0195
     21 C           9.5323   -1.7123    0.0000 C.ar    1  UNL1        0.1169
     22 C           3.4597    2.8323    0.0000 C.3     1  UNL1        0.0788
     23 H           4.3154   -1.3669    0.0000 H       1  UNL1        0.0691
     24 H           2.8665    1.1206    0.0000 H       1  UNL1        0.0691
     25 H           8.6663    0.4077    0.0000 H       1  UNL1        0.0626
     26 H           7.2634   -2.0223    0.0000 H       1  UNL1        0.0626
     27 H          10.0693   -0.4023    0.0000 H       1  UNL1        0.0654
     28 H           8.6663   -2.8323    0.0000 H       1  UNL1        0.0654
     29 H           7.8003    1.9077    0.0000 H       1  UNL1        0.2924
     30 H           3.7758    3.3656    0.0000 H       1  UNL1        0.0660
     31 H           2.9263    3.1485    0.0000 H       1  UNL1        0.0660
     32 H           3.1435    2.2990    0.0000 H       1  UNL1        0.0660
     33 H           2.0000   -0.4285    0.0000 H       1  UNL1        0.2921
     34 H          10.3984   -2.8323    0.0000 H       1  UNL1        0.2921
@<TRIPOS>BOND
     1     1     8   ar
     2     1     9   ar
     3     2    11    1
     4     2    22    1
     5     3    12    1
     6     3    29    1
     7     4    10    2
     8     5    16    1
     9     5    33    1
    10     6    21    1
    11     6    34    1
    12     7     8   ar
    13     7    10   ar
    14     7    11   ar
    15     8    14   ar
    16     9    12   ar
    17     9    13    1
    18    10    12   ar
    19    11    15   ar
    20    13    17   ar
    21    13    18   ar
    22    14    16   ar
    23    14    23    1
    24    15    16   ar
    25    15    24    1
    26    17    19   ar
    27    17    25    1
    28    18    20   ar
    29    18    26    1
    30    19    21   ar
    31    19    27    1
    32    20    21   ar
    33    20    28    1
    34    22    30    1
    35    22    31    1
    36    22    32    1
