@<TRIPOS>MOLECULE
IMPHY006158
 54 58 0 0 0
SMALL
GASTEIGER

@<TRIPOS>ATOM
      1 O          10.4722   -0.9340    0.0000 O.3     1  UNL1       -0.4768
      2 O          10.4645    1.0660    0.0000 O.3     1  UNL1       -0.4788
      3 O          12.1927    2.0726    0.0000 O.3     1  UNL1       -0.3912
      4 O           6.0682    0.5765    0.0000 O.2     1  UNL1       -0.4544
      5 O          13.0799   -3.4240    0.0000 O.3     1  UNL1       -0.4914
      6 O          14.8081   -2.4173    0.0000 O.3     1  UNL1       -0.5033
      7 O           6.0682    3.5765    0.0000 O.2     1  UNL1       -0.2869
      8 O           4.3198    3.6111    0.0000 O.3     1  UNL1       -0.5058
      9 O           2.5381    0.5524    0.0000 O.3     1  UNL1       -0.5065
     10 C          11.3363   -0.4307    0.0000 C.3     1  UNL1        0.1642
     11 C          11.3324    0.5693    0.0000 C.3     1  UNL1        0.1639
     12 C          12.2042   -0.9273    0.0000 C.ar    1  UNL1       -0.0000
     13 C          12.1965    1.0727    0.0000 C.3     1  UNL1        0.0850
     14 C           9.6004    0.5626    0.0000 C.ar    1  UNL1        0.1633
     15 C           9.6042   -0.4373    0.0000 C.ar    1  UNL1        0.1630
     16 C           8.7044    1.0939    0.0000 C.ar    1  UNL1       -0.0056
     17 C          12.2081   -1.9273    0.0000 C.ar    1  UNL1       -0.0095
     18 C           7.8003    0.5765    0.0000 C.ar    1  UNL1        0.0211
     19 C          13.0683   -0.4240    0.0000 C.ar    1  UNL1       -0.0513
     20 C           8.7124   -0.9754    0.0000 C.ar    1  UNL1       -0.0156
     21 C           7.8043   -0.4651    0.0000 C.ar    1  UNL1       -0.0474
     22 C           6.9343    1.0765    0.0000 C.ar    1  UNL1        0.1393
     23 C          13.0760   -2.4240    0.0000 C.ar    1  UNL1        0.1616
     24 C          13.9363   -0.9207    0.0000 C.ar    1  UNL1       -0.0161
     25 C          13.9401   -1.9206    0.0000 C.ar    1  UNL1        0.1585
     26 C           6.9343    2.0765    0.0000 C.ar    1  UNL1        0.0288
     27 C           5.2022    1.0765    0.0000 C.ar    1  UNL1        0.1462
     28 C           5.2022    2.0765    0.0000 C.ar    1  UNL1        0.1055
     29 C           6.0682    2.5765    0.0000 C.ar    1  UNL1        0.1966
     30 C           4.3083    2.6112    0.0000 C.ar    1  UNL1        0.1347
     31 C           4.3083    0.5419    0.0000 C.ar    1  UNL1        0.0231
     32 C           3.4022    1.0557    0.0000 C.ar    1  UNL1        0.1239
     33 C           3.4022    2.0973    0.0000 C.ar    1  UNL1        0.0223
     34 C          12.2158   -3.9273    0.0000 C.3     1  UNL1        0.0790
     35 H          11.3387   -1.0507    0.0000 H       1  UNL1        0.0823
     36 H          11.3300    1.1893    0.0000 H       1  UNL1        0.0798
     37 H          12.4108    0.4909    0.0000 H       1  UNL1        0.0595
     38 H          12.8067    1.1827    0.0000 H       1  UNL1        0.0595
     39 H           8.7092    1.7138    0.0000 H       1  UNL1        0.0662
     40 H          11.6723   -2.2394    0.0000 H       1  UNL1        0.0659
     41 H          13.0659    0.1960    0.0000 H       1  UNL1        0.0623
     42 H           8.7219   -1.5954    0.0000 H       1  UNL1        0.0655
     43 H           7.2698   -0.7792    0.0000 H       1  UNL1        0.0626
     44 H          14.4720   -0.6086    0.0000 H       1  UNL1        0.0655
     45 H          12.7284    2.3847    0.0000 H       1  UNL1        0.2096
     46 H           7.4712    2.3865    0.0000 H       1  UNL1        0.0693
     47 H           4.3154   -0.0781    0.0000 H       1  UNL1        0.0691
     48 H           2.8665    2.4094    0.0000 H       1  UNL1        0.0691
     49 H          15.3438   -2.1052    0.0000 H       1  UNL1        0.2923
     50 H          11.9037   -3.3916    0.0000 H       1  UNL1        0.0660
     51 H          11.6800   -4.2394    0.0000 H       1  UNL1        0.0660
     52 H          12.5278   -4.4630    0.0000 H       1  UNL1        0.0660
     53 H           3.7865    3.9273    0.0000 H       1  UNL1        0.2922
     54 H           2.0000    0.8603    0.0000 H       1  UNL1        0.2921
@<TRIPOS>BOND
     1     1    10    1
     2     1    15    1
     3     2    11    1
     4     2    14    1
     5     3    13    1
     6     3    45    1
     7     4    22   ar
     8     4    27   ar
     9     5    23    1
    10     5    34    1
    11     6    25    1
    12     6    49    1
    13     7    29    2
    14     8    30    1
    15     8    53    1
    16     9    32    1
    17     9    54    1
    18    10    11    1
    19    10    12    1
    20    10    35    1
    21    11    13    1
    22    11    36    1
    23    12    17   ar
    24    12    19   ar
    25    13    37    1
    26    13    38    1
    27    14    15   ar
    28    14    16   ar
    29    15    20   ar
    30    16    18   ar
    31    16    39    1
    32    17    23   ar
    33    17    40    1
    34    18    21   ar
    35    18    22    1
    36    19    24   ar
    37    19    41    1
    38    20    21   ar
    39    20    42    1
    40    21    43    1
    41    22    26   ar
    42    23    25   ar
    43    24    25   ar
    44    24    44    1
    45    26    29   ar
    46    26    46    1
    47    27    28   ar
    48    27    31   ar
    49    28    29   ar
    50    28    30   ar
    51    30    33   ar
    52    31    32   ar
    53    31    47    1
    54    32    33   ar
    55    33    48    1
    56    34    50    1
    57    34    51    1
    58    34    52    1
