@<TRIPOS>MOLECULE
IMPHY008686
 19 19 0 0 0
SMALL
GASTEIGER

@<TRIPOS>ATOM
      1 N           4.5981   -1.0000    0.0000 N.ar    1  UNL1       -0.2566
      2 N           4.5981    1.0000    0.0000 N.ar    1  UNL1       -0.2569
      3 C           2.8660   -1.0000    0.0000 C.3     1  UNL1       -0.0118
      4 C           3.7320   -0.5000    0.0000 C.ar    1  UNL1        0.0591
      5 C           2.0000   -0.5000    0.0000 C.3     1  UNL1       -0.0598
      6 C           3.7320    0.5000    0.0000 C.ar    1  UNL1        0.0491
      7 C           5.4641    0.5000    0.0000 C.ar    1  UNL1        0.0563
      8 C           5.4641   -0.5000    0.0000 C.ar    1  UNL1        0.0489
      9 C           6.3301    1.0000    0.0000 C.3     1  UNL1       -0.0209
     10 H           2.4675   -1.4750    0.0000 H       1  UNL1        0.0326
     11 H           3.2646   -1.4750    0.0000 H       1  UNL1        0.0326
     12 H           2.3100    0.0369    0.0000 H       1  UNL1        0.0233
     13 H           1.4631   -0.1900    0.0000 H       1  UNL1        0.0233
     14 H           1.6900   -1.0369    0.0000 H       1  UNL1        0.0233
     15 H           3.1951    0.8100    0.0000 H       1  UNL1        0.0848
     16 H           6.0010   -0.8100    0.0000 H       1  UNL1        0.0848
     17 H           6.6401    0.4631    0.0000 H       1  UNL1        0.0293
     18 H           6.8671    1.3100    0.0000 H       1  UNL1        0.0293
     19 H           6.0201    1.5369    0.0000 H       1  UNL1        0.0293
@<TRIPOS>BOND
     1     1     4   ar
     2     1     8   ar
     3     2     6   ar
     4     2     7   ar
     5     3     4    1
     6     3     5    1
     7     3    10    1
     8     3    11    1
     9     4     6   ar
    10     5    12    1
    11     5    13    1
    12     5    14    1
    13     6    15    1
    14     7     8   ar
    15     7     9    1
    16     8    16    1
    17     9    17    1
    18     9    18    1
    19     9    19    1
