@<TRIPOS>MOLECULE
IMPHY009324
 52 56 0 0 0
SMALL
GASTEIGER

@<TRIPOS>ATOM
      1 O           1.7227   -1.2457    0.0000 O.3     1  UNL1       -0.4560
      2 O           3.5994    2.9437    0.0000 O.3     1  UNL1       -0.3946
      3 O           0.5978    0.2202    0.0000 O.2     1  UNL1       -0.2505
      4 O           5.6199   -4.1011    0.0000 O.3     1  UNL1       -0.4526
      5 O           7.0098   -3.1636    0.0000 O.3     1  UNL1       -0.4526
      6 O           8.1079    1.2156    0.0000 O.3     1  UNL1       -0.4913
      7 O           5.3782    3.3483    0.0000 O.3     1  UNL1       -0.4913
      8 O           7.3587    3.0700    0.0000 O.3     1  UNL1       -0.4885
      9 C           2.8628    0.2290    0.0000 C.3     1  UNL1        0.0758
     10 C           3.5994    1.2117    0.0000 C.3     1  UNL1        0.0373
     11 C           3.1216   -0.7369    0.0000 C.3     1  UNL1        0.1341
     12 C           4.8960   -0.0821    0.0000 C.3     1  UNL1        0.0233
     13 C           4.3426   -1.6026    0.0000 C.ar    1  UNL1        0.0006
     14 C           5.1717   -1.0434    0.0000 C.ar    1  UNL1       -0.0288
     15 C           1.4639   -0.2798    0.0000 C.2     1  UNL1        0.3122
     16 C           4.0994    2.0777    0.0000 C.3     1  UNL1        0.0515
     17 C           5.5117    0.7059    0.0000 C.ar    1  UNL1       -0.0320
     18 C           4.3993   -2.6426    0.0000 C.ar    1  UNL1       -0.0092
     19 C           6.1148   -1.4855    0.0000 C.ar    1  UNL1       -0.0120
     20 C           5.3319   -3.1065    0.0000 C.ar    1  UNL1        0.1666
     21 C           6.1955   -2.5240    0.0000 C.ar    1  UNL1        0.1665
     22 C           5.1371    1.6331    0.0000 C.ar    1  UNL1       -0.0123
     23 C           6.5020    0.5667    0.0000 C.ar    1  UNL1       -0.0123
     24 C           7.1176    1.3548    0.0000 C.ar    1  UNL1        0.1654
     25 C           5.7528    2.4211    0.0000 C.ar    1  UNL1        0.1654
     26 C           6.6548   -4.1363    0.0000 C.3     1  UNL1        0.2332
     27 C           6.7430    2.2819    0.0000 C.ar    1  UNL1        0.2035
     28 C           8.4825    0.2884    0.0000 C.3     1  UNL1        0.0790
     29 C           5.9938    4.1363    0.0000 C.3     1  UNL1        0.0790
     30 C           8.3490    2.9308    0.0000 C.3     1  UNL1        0.0791
     31 H           2.6428    1.0501    0.0000 H       1  UNL1        0.0427
     32 H           3.0820    1.5532    0.0000 H       1  UNL1        0.0370
     33 H           3.3416   -1.5579    0.0000 H       1  UNL1        0.0789
     34 H           5.5046   -0.2004    0.0000 H       1  UNL1        0.0405
     35 H           4.5744    2.4762    0.0000 H       1  UNL1        0.0561
     36 H           4.5744    1.6792    0.0000 H       1  UNL1        0.0561
     37 H           3.8813   -2.9834    0.0000 H       1  UNL1        0.0659
     38 H           6.6248   -1.1329    0.0000 H       1  UNL1        0.0658
     39 H           4.5231    1.7194    0.0000 H       1  UNL1        0.0658
     40 H           6.7342   -0.0081    0.0000 H       1  UNL1        0.0658
     41 H           2.9794    2.9437    0.0000 H       1  UNL1        0.2094
     42 H           7.2563   -4.2865    0.0000 H       1  UNL1        0.1166
     43 H           6.5687   -4.7503    0.0000 H       1  UNL1        0.1166
     44 H           9.0574    0.5207    0.0000 H       1  UNL1        0.0660
     45 H           8.7148   -0.2865    0.0000 H       1  UNL1        0.0660
     46 H           7.9076    0.0561    0.0000 H       1  UNL1        0.0660
     47 H           5.5052    4.5180    0.0000 H       1  UNL1        0.0660
     48 H           6.3755    4.6249    0.0000 H       1  UNL1        0.0660
     49 H           6.4824    3.7546    0.0000 H       1  UNL1        0.0660
     50 H           8.4352    3.5448    0.0000 H       1  UNL1        0.0660
     51 H           8.9629    2.8445    0.0000 H       1  UNL1        0.0660
     52 H           8.2627    2.3168    0.0000 H       1  UNL1        0.0660
@<TRIPOS>BOND
     1     1    11    1
     2     1    15    1
     3     2    16    1
     4     2    41    1
     5     3    15    2
     6     4    20    1
     7     4    26    1
     8     5    21    1
     9     5    26    1
    10     6    24    1
    11     6    28    1
    12     7    25    1
    13     7    29    1
    14     8    27    1
    15     8    30    1
    16     9    10    1
    17     9    12    1
    18     9    15    1
    19     9    31    1
    20    10    11    1
    21    10    16    1
    22    10    32    1
    23    11    13    1
    24    11    33    1
    25    12    14    1
    26    12    17    1
    27    12    34    1
    28    13    14   ar
    29    13    18   ar
    30    14    19   ar
    31    16    35    1
    32    16    36    1
    33    17    22   ar
    34    17    23   ar
    35    18    20   ar
    36    18    37    1
    37    19    21   ar
    38    19    38    1
    39    20    21   ar
    40    22    25   ar
    41    22    39    1
    42    23    24   ar
    43    23    40    1
    44    24    27   ar
    45    25    27   ar
    46    26    42    1
    47    26    43    1
    48    28    44    1
    49    28    45    1
    50    28    46    1
    51    29    47    1
    52    29    48    1
    53    29    49    1
    54    30    50    1
    55    30    51    1
    56    30    52    1
