@<TRIPOS>MOLECULE
IMPHY000948
 76 82 0 0 0
SMALL
GASTEIGER

@<TRIPOS>ATOM
      1 O           7.6032    3.3993    0.0000 O.3     1  UNL1       -0.3877
      2 O           9.3586   -1.7828    0.0000 O.3     1  UNL1       -0.3331
      3 O          11.2253   -0.7051    0.0000 O.3     1  UNL1       -0.3404
      4 O           8.1926   -0.8344    0.0000 O.2     1  UNL1       -0.3004
      5 O           2.4774    3.0785    0.0000 O.3     1  UNL1       -0.4571
      6 O          12.2210   -2.3400    0.0000 O.3     1  UNL1       -0.3429
      7 O           9.4280   -2.8325    0.0000 O.3     1  UNL1       -0.3551
      8 O           2.0000    1.3617    0.0000 O.2     1  UNL1       -0.2456
      9 O           9.4049   -3.9525    0.0000 O.2     1  UNL1       -0.2914
     10 C           6.7334    2.9060    0.0000 C.3     1  UNL1        0.0751
     11 C           7.6273    2.3713    0.0000 C.3     1  UNL1       -0.0079
     12 C           7.6273    1.3713    0.0000 C.3     1  UNL1       -0.0231
     13 C           5.8273    2.3921    0.0000 C.3     1  UNL1        0.0036
     14 C           8.4934    0.8713    0.0000 C.3     1  UNL1        0.0344
     15 C           9.3594    1.3713    0.0000 C.3     1  UNL1       -0.0262
     16 C           6.7334    0.8367    0.0000 C.3     1  UNL1       -0.0484
     17 C           5.8273    1.3505    0.0000 C.3     1  UNL1       -0.0442
     18 C           5.0650    3.0929    0.0000 C.3     1  UNL1       -0.0081
     19 C           8.4934    2.8713    0.0000 C.3     1  UNL1       -0.0470
     20 C           6.5233    3.9199    0.0000 C.3     1  UNL1       -0.0226
     21 C           9.3594    2.3713    0.0000 C.3     1  UNL1       -0.0489
     22 C           5.4943    4.0352    0.0000 C.3     1  UNL1       -0.0432
     23 C           8.4773   -0.1702    0.0000 C.3     1  UNL1       -0.0114
     24 C          10.2694    0.8645    0.0000 C.3     1  UNL1       -0.0203
     25 C           4.9575    1.8988    0.0000 C.3     1  UNL1       -0.0564
     26 C           9.3753   -0.6979    0.0000 C.3     1  UNL1        0.0896
     27 C          10.2774   -0.1771    0.0000 C.3     1  UNL1        0.0884
     28 C           7.8506    0.1053    0.0000 C.2     1  UNL1        0.1270
     29 C           4.0850    2.8942    0.0000 C.2     1  UNL1       -0.0222
     30 C           3.3482    3.5703    0.0000 C.3     1  UNL1        0.1147
     31 C          10.2940   -2.3325    0.0000 C.3     1  UNL1        0.2808
     32 C          11.2337   -1.7900    0.0000 C.3     1  UNL1        0.2221
     33 C           3.6696    1.9846    0.0000 C.2     1  UNL1        0.0252
     34 C           2.6761    2.0985    0.0000 C.2     1  UNL1        0.3323
     35 C          10.2766   -3.4626    0.0000 C.2     1  UNL1        0.1995
     36 C          11.2510   -4.0352    0.0000 C.3     1  UNL1        0.0375
     37 C          12.2297   -3.4701    0.0000 C.3     1  UNL1        0.0659
     38 C          13.0977   -3.9668    0.0000 C.3     1  UNL1       -0.0382
     39 H           8.3635    1.9463    0.0000 H       1  UNL1        0.0332
     40 H           7.6339    0.5213    0.0000 H       1  UNL1        0.0314
     41 H          10.0922    1.8020    0.0000 H       1  UNL1        0.0311
     42 H           6.3398    0.3576    0.0000 H       1  UNL1        0.0268
     43 H           7.1380    0.3669    0.0000 H       1  UNL1        0.0268
     44 H           5.2165    1.4566    0.0000 H       1  UNL1        0.0272
     45 H           5.6183    0.7668    0.0000 H       1  UNL1        0.0272
     46 H           4.6792    3.5782    0.0000 H       1  UNL1        0.0353
     47 H           8.8919    3.3463    0.0000 H       1  UNL1        0.0269
     48 H           8.0948    3.3463    0.0000 H       1  UNL1        0.0269
     49 H           7.1403    3.9812    0.0000 H       1  UNL1        0.0293
     50 H           6.5272    4.5399    0.0000 H       1  UNL1        0.0293
     51 H           9.9700    2.2636    0.0000 H       1  UNL1        0.0268
     52 H           9.5714    2.9539    0.0000 H       1  UNL1        0.0268
     53 H           5.6277    4.6407    0.0000 H       1  UNL1        0.0272
     54 H           4.9062    4.2315    0.0000 H       1  UNL1        0.0272
     55 H           7.8682   -0.0547    0.0000 H       1  UNL1        0.0300
     56 H           8.2593   -0.7506    0.0000 H       1  UNL1        0.0300
     57 H          10.8811    0.7631    0.0000 H       1  UNL1        0.0294
     58 H          10.4739    1.4498    0.0000 H       1  UNL1        0.0294
     59 H           4.6516    2.4381    0.0000 H       1  UNL1        0.0236
     60 H           4.4182    1.5930    0.0000 H       1  UNL1        0.0236
     61 H           5.2633    1.3595    0.0000 H       1  UNL1        0.0236
     62 H           8.6344   -1.1144    0.0000 H       1  UNL1        0.0623
     63 H          11.0086    0.2564    0.0000 H       1  UNL1        0.0623
     64 H           7.2400    0.2130    0.0000 H       1  UNL1        0.1032
     65 H           7.6080    4.0193    0.0000 H       1  UNL1        0.2102
     66 H           3.8128    3.9808    0.0000 H       1  UNL1        0.0746
     67 H           2.9885    4.0753    0.0000 H       1  UNL1        0.0746
     68 H          11.9648   -1.3566    0.0000 H       1  UNL1        0.0971
     69 H           3.9745    1.4447    0.0000 H       1  UNL1        0.0689
     70 H          10.8500   -4.5081    0.0000 H       1  UNL1        0.0369
     71 H          11.6483   -4.5112    0.0000 H       1  UNL1        0.0369
     72 H          12.7649   -3.1570    0.0000 H       1  UNL1        0.0598
     73 H           8.8911   -2.5225    0.0000 H       1  UNL1        0.2133
     74 H          12.7898   -4.5049    0.0000 H       1  UNL1        0.0255
     75 H          13.6358   -4.2747    0.0000 H       1  UNL1        0.0255
     76 H          13.4056   -3.4286    0.0000 H       1  UNL1        0.0255
@<TRIPOS>BOND
     1    10     1    1
     2     1    65    1
     3     2    26    1
     4     2    31    1
     5     3    27    1
     6     3    32    1
     7     4    28    2
     8     5    30    1
     9     5    34    1
    10     6    32    1
    11     6    37    1
    12    31     7    1
    13     7    73    1
    14     8    34    2
    15     9    35    2
    16    10    11    1
    17    10    13    1
    18    10    20    1
    19    11    12    1
    20    11    19    1
    21    11    39    1
    22    12    14    1
    23    12    16    1
    24    12    40    1
    25    13    17    1
    26    13    18    1
    27    13    25    1
    28    14    15    1
    29    14    23    1
    30    14    28    1
    31    15    21    1
    32    15    24    1
    33    15    41    1
    34    16    17    1
    35    16    42    1
    36    16    43    1
    37    17    44    1
    38    17    45    1
    39    18    22    1
    40    18    29    1
    41    18    46    1
    42    19    21    1
    43    19    47    1
    44    19    48    1
    45    20    22    1
    46    20    49    1
    47    20    50    1
    48    21    51    1
    49    21    52    1
    50    22    53    1
    51    22    54    1
    52    23    26    1
    53    23    55    1
    54    23    56    1
    55    24    27    1
    56    24    57    1
    57    24    58    1
    58    25    59    1
    59    25    60    1
    60    25    61    1
    61    26    27    1
    62    26    62    1
    63    27    63    1
    64    28    64    1
    65    29    30    1
    66    29    33    2
    67    30    66    1
    68    30    67    1
    69    31    32    1
    70    31    35    1
    71    32    68    1
    72    33    34    1
    73    33    69    1
    74    35    36    1
    75    36    37    1
    76    36    70    1
    77    36    71    1
    78    37    38    1
    79    37    72    1
    80    38    74    1
    81    38    75    1
    82    38    76    1
