@<TRIPOS>MOLECULE
IMPHY006789
 55 59 0 0 0
SMALL
GASTEIGER

@<TRIPOS>ATOM
      1 O           7.6122   -1.2874    0.0000 O.3     1  UNL1       -0.4672
      2 O           5.8804   -0.5573    0.0000 O.2     1  UNL1       -0.2497
      3 O           2.9997   -2.9482    0.0000 O.3     1  UNL1       -0.4950
      4 N           6.7007    2.1245    0.0000 N.3     1  UNL1       -0.2971
      5 N           6.0647   -1.0509    0.0000 N.ar    1  UNL1       -0.3567
      6 C           7.3242    1.3426    0.0000 C.3     1  UNL1        0.0344
      7 C           7.1017    0.3677    0.0000 C.3     1  UNL1        0.1235
      8 C           8.8520   -0.0531    0.0000 C.3     1  UNL1       -0.0265
      9 C           8.3147    1.6650    0.0000 C.3     1  UNL1       -0.0240
     10 C           7.8543   -0.3525    0.0000 C.3     1  UNL1       -0.0262
     11 C           9.0837    0.9624    0.0000 C.3     1  UNL1       -0.0447
     12 C           8.4050    1.6567    0.0000 C.3     1  UNL1        0.0021
     13 C           6.2007   -0.0662    0.0000 C.ar    1  UNL1        0.0388
     14 C           5.7007    2.1245    0.0000 C.3     1  UNL1        0.0033
     15 C           8.5260    2.6424    0.0000 C.3     1  UNL1       -0.0516
     16 C           6.8792   -0.6072    0.0000 C.2     1  UNL1        0.3205
     17 C           5.2998    0.3677    0.0000 C.ar    1  UNL1       -0.0168
     18 C           5.0772    1.3426    0.0000 C.3     1  UNL1       -0.0126
     19 C           4.6147   -0.3526    0.0000 C.ar    1  UNL1        0.0034
     20 C           9.4781    2.9482    0.0000 C.3     1  UNL1       -0.0650
     21 C           5.0865   -1.2276    0.0000 C.ar    1  UNL1        0.0504
     22 C           3.5802   -0.3065    0.0000 C.ar    1  UNL1       -0.0489
     23 C           4.5566   -2.1172    0.0000 C.ar    1  UNL1        0.0040
     24 C           7.3897   -2.2623    0.0000 C.3     1  UNL1        0.0817
     25 C           3.0299   -1.1836    0.0000 C.ar    1  UNL1       -0.0193
     26 C           3.5214   -2.0950    0.0000 C.ar    1  UNL1        0.1221
     27 C           2.0000   -2.9230    0.0000 C.3     1  UNL1        0.0788
     28 H           7.5134    2.1713    0.0000 H       1  UNL1        0.0480
     29 H           9.0669   -0.8755    0.0000 H       1  UNL1        0.0314
     30 H           8.9054    1.8534    0.0000 H       1  UNL1        0.0316
     31 H           7.3553   -0.7204    0.0000 H       1  UNL1        0.0283
     32 H           8.1314   -0.9071    0.0000 H       1  UNL1        0.0283
     33 H           9.6557    0.7230    0.0000 H       1  UNL1        0.0271
     34 H           9.4174    1.4849    0.0000 H       1  UNL1        0.0271
     35 H           9.0229    1.7070    0.0000 H       1  UNL1        0.0429
     36 H           8.4628    2.2740    0.0000 H       1  UNL1        0.0429
     37 H           5.8387    2.7289    0.0000 H       1  UNL1        0.0430
     38 H           5.1421    2.3935    0.0000 H       1  UNL1        0.0430
     39 H           8.4418    3.2567    0.0000 H       1  UNL1        0.0266
     40 H           7.9064    2.6662    0.0000 H       1  UNL1        0.0266
     41 H           4.6907    1.8274    0.0000 H       1  UNL1        0.0326
     42 H           4.5186    1.0736    0.0000 H       1  UNL1        0.0326
     43 H           6.5121   -1.4801    0.0000 H       1  UNL1        0.1656
     44 H           9.6676    2.3579    0.0000 H       1  UNL1        0.0230
     45 H          10.0684    3.1378    0.0000 H       1  UNL1        0.0230
     46 H           9.2885    3.5385    0.0000 H       1  UNL1        0.0230
     47 H           3.2923    0.2425    0.0000 H       1  UNL1        0.0625
     48 H           4.8571   -2.6594    0.0000 H       1  UNL1        0.0675
     49 H           6.7853   -2.1244    0.0000 H       1  UNL1        0.0661
     50 H           7.2518   -2.8668    0.0000 H       1  UNL1        0.0661
     51 H           7.9942   -2.4003    0.0000 H       1  UNL1        0.0661
     52 H           2.4102   -1.1632    0.0000 H       1  UNL1        0.0654
     53 H           2.0156   -2.3032    0.0000 H       1  UNL1        0.0660
     54 H           1.3802   -2.9074    0.0000 H       1  UNL1        0.0660
     55 H           1.9844   -3.5428    0.0000 H       1  UNL1        0.0660
@<TRIPOS>BOND
     1     1    16    1
     2     1    24    1
     3     2    16    2
     4     3    26    1
     5     3    27    1
     6     4     6    1
     7     4    12    1
     8     4    14    1
     9     5    13   ar
    10     5    21   ar
    11     5    43    1
    12     6     7    1
    13     6     9    1
    14     6    28    1
    15     7    10    1
    16     7    13    1
    17     7    16    1
    18     8    10    1
    19     8    11    1
    20     8    12    1
    21     8    29    1
    22     9    11    1
    23     9    15    1
    24     9    30    1
    25    10    31    1
    26    10    32    1
    27    11    33    1
    28    11    34    1
    29    12    35    1
    30    12    36    1
    31    13    17   ar
    32    14    18    1
    33    14    37    1
    34    14    38    1
    35    15    20    1
    36    15    39    1
    37    15    40    1
    38    17    18    1
    39    17    19   ar
    40    18    41    1
    41    18    42    1
    42    19    21   ar
    43    19    22   ar
    44    20    44    1
    45    20    45    1
    46    20    46    1
    47    21    23   ar
    48    22    25   ar
    49    22    47    1
    50    23    26   ar
    51    23    48    1
    52    24    49    1
    53    24    50    1
    54    24    51    1
    55    25    26   ar
    56    25    52    1
    57    27    53    1
    58    27    54    1
    59    27    55    1
