@<TRIPOS>MOLECULE
IMPHY012919
 31 31 0 0 0
SMALL
GASTEIGER

@<TRIPOS>ATOM
      1 O           5.4543   -0.3956    0.0000 O.3     1  UNL1       -0.3657
      2 O           3.1590    1.5304    0.0000 O.2     1  UNL1       -0.2973
      3 C           4.6453    0.1922    0.0000 C.3     1  UNL1        0.0691
      4 C           6.2633    0.1922    0.0000 C.3     1  UNL1        0.0850
      5 C           4.9543    1.1432    0.0000 C.3     1  UNL1       -0.0230
      6 C           5.9543    1.1432    0.0000 C.3     1  UNL1       -0.0180
      7 C           3.6942   -0.1169    0.0000 C.3     1  UNL1        0.0406
      8 C           7.2144    0.5012    0.0000 C.3     1  UNL1       -0.0322
      9 C           6.8511   -0.6169    0.0000 C.2     1  UNL1       -0.0600
     10 C           3.4863   -1.0950    0.0000 C.3     1  UNL1       -0.0533
     11 C           2.9511    0.5523    0.0000 C.2     1  UNL1        0.1356
     12 C           2.0000    0.2432    0.0000 C.3     1  UNL1       -0.0057
     13 C           6.4443   -1.5304    0.0000 C.2     1  UNL1       -0.1000
     14 H           4.5483   -0.4202    0.0000 H       1  UNL1        0.0603
     15 H           5.0191    1.7598    0.0000 H       1  UNL1        0.0291
     16 H           4.3478    1.2721    0.0000 H       1  UNL1        0.0291
     17 H           6.5607    1.2721    0.0000 H       1  UNL1        0.0297
     18 H           5.8895    1.7598    0.0000 H       1  UNL1        0.0297
     19 H           3.1046   -0.3085    0.0000 H       1  UNL1        0.0400
     20 H           7.4059   -0.0885    0.0000 H       1  UNL1        0.0260
     21 H           7.8040    0.6928    0.0000 H       1  UNL1        0.0260
     22 H           7.0228    1.0908    0.0000 H       1  UNL1        0.0260
     23 H           7.4677   -0.5521    0.0000 H       1  UNL1        0.0594
     24 H           2.8798   -0.9661    0.0000 H       1  UNL1        0.0237
     25 H           3.3574   -1.7015    0.0000 H       1  UNL1        0.0237
     26 H           4.0927   -1.2239    0.0000 H       1  UNL1        0.0237
     27 H           1.8084    0.8329    0.0000 H       1  UNL1        0.0306
     28 H           1.4103    0.0517    0.0000 H       1  UNL1        0.0306
     29 H           2.1916   -0.3464    0.0000 H       1  UNL1        0.0306
     30 H           5.8277   -1.5952    0.0000 H       1  UNL1        0.0533
     31 H           6.8088   -2.0320    0.0000 H       1  UNL1        0.0533
@<TRIPOS>BOND
     1     1     3    1
     2     1     4    1
     3     2    11    2
     4     3     5    1
     5     3     7    1
     6     3    14    1
     7     4     6    1
     8     4     8    1
     9     4     9    1
    10     5     6    1
    11     5    15    1
    12     5    16    1
    13     6    17    1
    14     6    18    1
    15     7    10    1
    16     7    11    1
    17     7    19    1
    18     8    20    1
    19     8    21    1
    20     8    22    1
    21     9    13    2
    22     9    23    1
    23    10    24    1
    24    10    25    1
    25    10    26    1
    26    11    12    1
    27    12    27    1
    28    12    28    1
    29    12    29    1
    30    13    30    1
    31    13    31    1
