@<TRIPOS>MOLECULE
IMPHY012858
 94 103 0 0 0
SMALL
GASTEIGER

@<TRIPOS>ATOM
      1 O           3.9887   -2.1549    0.0000 O.3     1  UNL1       -0.4666
      2 O           7.5033    3.6541    0.0000 O.2     1  UNL1       -0.4988
      3 O           3.7776   -0.4357    0.0000 O.2     1  UNL1       -0.2487
      4 N           5.8568   -0.2379    0.0000 N.pl3   1  UNL1       -0.3046
      5 N           8.5506   -2.2418    0.0000 N.3     1  UNL1       -0.2931
      6 N          11.3445    4.1699    0.0000 N.3     1  UNL1       -0.2934
      7 N          12.3642    0.4009    0.0000 N.ar    1  UNL1       -0.3452
      8 C           6.8384   -0.4288    0.0000 C.3     1  UNL1        0.0767
      9 C           7.0897   -1.9043    0.0000 C.3     1  UNL1        0.0369
     10 C           7.3182    0.4420    0.0000 C.3     1  UNL1        0.0135
     11 C           6.5896   -2.7703    0.0000 C.3     1  UNL1        0.0117
     12 C           5.3740   -2.9442    0.0000 C.3     1  UNL1       -0.0262
     13 C           5.3720   -1.1125    0.0000 C.3     1  UNL1        0.1282
     14 C           8.8242    0.4035    0.0000 C.3     1  UNL1       -0.0310
     15 C           9.4799   -0.9529    0.0000 C.3     1  UNL1        0.0002
     16 C           6.6396    1.1684    0.0000 C.ar    1  UNL1       -0.0208
     17 C           5.7383    0.7490    0.0000 C.ar    1  UNL1        0.0347
     18 C           8.6552   -3.2362    0.0000 C.3     1  UNL1        0.0207
     19 C           7.7416   -3.6429    0.0000 C.2     1  UNL1       -0.0543
     20 C           6.6706    0.5570    0.0000 C.2     1  UNL1       -0.0583
     21 C           8.8179    2.0561    0.0000 C.3     1  UNL1       -0.0039
     22 C           4.3794   -1.2344    0.0000 C.2     1  UNL1        0.3281
     23 C           9.1763    2.9896    0.0000 C.3     1  UNL1        0.0160
     24 C           7.6123    0.8935    0.0000 C.2     1  UNL1       -0.0573
     25 C          10.6079    3.1873    0.0000 C.3     1  UNL1        0.0213
     26 C           6.7467    2.1983    0.0000 C.ar    1  UNL1       -0.0565
     27 C           4.8815    1.3306    0.0000 C.ar    1  UNL1       -0.0403
     28 C          10.8667    2.2214    0.0000 C.3     1  UNL1        0.0516
     29 C           9.5950    1.4267    0.0000 C.3     1  UNL1       -0.0245
     30 C           7.7917    1.8773    0.0000 C.2     1  UNL1       -0.0098
     31 C           7.5337   -4.6210    0.0000 C.2     1  UNL1       -0.0863
     32 C          12.6412    2.8762    0.0000 C.3     1  UNL1       -0.0093
     33 C          12.0878    1.3557    0.0000 C.ar    1  UNL1        0.0400
     34 C           8.5333    3.8092    0.0000 C.3     1  UNL1        0.0935
     35 C          12.9168    1.9149    0.0000 C.ar    1  UNL1       -0.0159
     36 C           5.9036    2.7995    0.0000 C.ar    1  UNL1       -0.0614
     37 C           4.9648    2.3627    0.0000 C.ar    1  UNL1       -0.0600
     38 C           7.1300    2.6817    0.0000 C.2     1  UNL1        0.0879
     39 C           6.5827   -4.9300    0.0000 C.3     1  UNL1       -0.0465
     40 C          11.8445    5.0360    0.0000 C.3     1  UNL1       -0.0118
     41 C          13.6986    1.3009    0.0000 C.ar    1  UNL1        0.0034
     42 C          13.3577    0.3670    0.0000 C.ar    1  UNL1        0.0493
     43 C           2.9961   -2.2767    0.0000 C.3     1  UNL1        0.0817
     44 C          11.7499   -0.3882    0.0000 C.3     1  UNL1        0.0122
     45 C          14.7156    1.4955    0.0000 C.ar    1  UNL1       -0.0523
     46 C          14.0103   -0.4369    0.0000 C.ar    1  UNL1       -0.0376
     47 C          15.3866    0.7069    0.0000 C.ar    1  UNL1       -0.0611
     48 C          15.0316   -0.2659    0.0000 C.ar    1  UNL1       -0.0598
     49 H           7.2323   -2.7422    0.0000 H       1  UNL1        0.0487
     50 H           7.6667    1.2172    0.0000 H       1  UNL1        0.0374
     51 H           6.1646   -3.5064    0.0000 H       1  UNL1        0.0370
     52 H           5.2222   -3.5454    0.0000 H       1  UNL1        0.0288
     53 H           4.8754   -2.5757    0.0000 H       1  UNL1        0.0288
     54 H           5.0253   -0.5985    0.0000 H       1  UNL1        0.0622
     55 H           8.7419    1.0180    0.0000 H       1  UNL1        0.0284
     56 H           9.4180    0.5818    0.0000 H       1  UNL1        0.0284
     57 H           9.9861   -0.5949    0.0000 H       1  UNL1        0.0427
     58 H           9.9163   -1.3933    0.0000 H       1  UNL1        0.0427
     59 H           9.2616   -3.1073    0.0000 H       1  UNL1        0.0473
     60 H           8.8468   -3.8259    0.0000 H       1  UNL1        0.0473
     61 H           6.1980    0.9583    0.0000 H       1  UNL1        0.0594
     62 H           8.5133    1.2625    0.0000 H       1  UNL1        0.0355
     63 H           9.4809    3.7832    0.0000 H       1  UNL1        0.0355
     64 H           8.0848    0.4922    0.0000 H       1  UNL1        0.0619
     65 H          10.3879    4.0084    0.0000 H       1  UNL1        0.0470
     66 H           7.3118    2.4533    0.0000 H       1  UNL1        0.0621
     67 H           4.3225    1.0626    0.0000 H       1  UNL1        0.0636
     68 H          11.0867    1.4004    0.0000 H       1  UNL1        0.0527
     69 H           9.9796    0.9404    0.0000 H       1  UNL1        0.0290
     70 H           9.1541    0.9909    0.0000 H       1  UNL1        0.0290
     71 H           7.9944   -5.0360    0.0000 H       1  UNL1        0.0569
     72 H          12.6462    3.4962    0.0000 H       1  UNL1        0.0329
     73 H          13.2555    2.9600    0.0000 H       1  UNL1        0.0329
     74 H           8.3375    4.3974    0.0000 H       1  UNL1        0.0700
     75 H           9.0794    4.1027    0.0000 H       1  UNL1        0.0700
     76 H           5.9606    3.4168    0.0000 H       1  UNL1        0.0618
     77 H           4.4558    2.7168    0.0000 H       1  UNL1        0.0618
     78 H           6.5180    2.5824    0.0000 H       1  UNL1        0.1026
     79 H           6.7742   -5.5197    0.0000 H       1  UNL1        0.0272
     80 H           5.9930   -5.1216    0.0000 H       1  UNL1        0.0272
     81 H           6.3911   -4.3404    0.0000 H       1  UNL1        0.0272
     82 H          11.3076    5.3460    0.0000 H       1  UNL1        0.0391
     83 H          12.1545    5.5729    0.0000 H       1  UNL1        0.0391
     84 H          12.3815    4.7260    0.0000 H       1  UNL1        0.0391
     85 H           3.0716   -2.8921    0.0000 H       1  UNL1        0.0661
     86 H           2.3807   -2.3522    0.0000 H       1  UNL1        0.0661
     87 H           2.9206   -1.6613    0.0000 H       1  UNL1        0.0661
     88 H          12.2392   -0.7691    0.0000 H       1  UNL1        0.0456
     89 H          11.3691   -0.8774    0.0000 H       1  UNL1        0.0456
     90 H          11.2607   -0.0073    0.0000 H       1  UNL1        0.0456
     91 H          14.9214    2.0803    0.0000 H       1  UNL1        0.0624
     92 H          13.7911   -1.0168    0.0000 H       1  UNL1        0.0638
     93 H          15.9968    0.8163    0.0000 H       1  UNL1        0.0618
     94 H          15.4278   -0.7427    0.0000 H       1  UNL1        0.0618
@<TRIPOS>BOND
     1     1    22    1
     2     1    43    1
     3     2    34    1
     4     2    38    1
     5     3    22    2
     6     4     8    1
     7     4    13    1
     8     4    17    1
     9     5     9    1
    10     5    15    1
    11     5    18    1
    12     6    25    1
    13     6    28    1
    14     6    40    1
    15     7    33   ar
    16     7    42   ar
    17     7    44    1
    18     8     9    1
    19     8    10    1
    20     8    20    1
    21     9    12    1
    22     9    49    1
    23    10    14    1
    24    10    16    1
    25    10    50    1
    26    11    12    1
    27    11    13    1
    28    11    19    1
    29    11    51    1
    30    12    52    1
    31    12    53    1
    32    13    22    1
    33    13    54    1
    34    14    15    1
    35    14    55    1
    36    14    56    1
    37    15    57    1
    38    15    58    1
    39    16    17   ar
    40    16    26   ar
    41    17    27   ar
    42    18    19    1
    43    18    59    1
    44    18    60    1
    45    19    31    2
    46    20    24    2
    47    20    61    1
    48    21    23    1
    49    21    29    1
    50    21    30    1
    51    21    62    1
    52    23    25    1
    53    23    34    1
    54    23    63    1
    55    24    30    1
    56    24    64    1
    57    25    32    1
    58    25    65    1
    59    26    36   ar
    60    26    66    1
    61    27    37   ar
    62    27    67    1
    63    28    29    1
    64    28    33    1
    65    28    68    1
    66    29    69    1
    67    29    70    1
    68    30    38    2
    69    31    39    1
    70    31    71    1
    71    32    35    1
    72    32    72    1
    73    32    73    1
    74    33    35   ar
    75    34    74    1
    76    34    75    1
    77    35    41   ar
    78    36    37   ar
    79    36    76    1
    80    37    77    1
    81    38    78    1
    82    39    79    1
    83    39    80    1
    84    39    81    1
    85    40    82    1
    86    40    83    1
    87    40    84    1
    88    41    42   ar
    89    41    45   ar
    90    42    46   ar
    91    43    85    1
    92    43    86    1
    93    43    87    1
    94    44    88    1
    95    44    89    1
    96    44    90    1
    97    45    47   ar
    98    45    91    1
    99    46    48   ar
   100    46    92    1
   101    47    48   ar
   102    47    93    1
   103    48    94    1
