@<TRIPOS>MOLECULE
IMPHY001401
 69 74 0 0 0
SMALL
GASTEIGER

@<TRIPOS>ATOM
      1 O           7.9899   -0.9435    0.0000 O.3     1  UNL1       -0.3472
      2 O           8.4585    2.5283    0.0000 O.3     1  UNL1       -0.3877
      3 O          10.9807    1.1431    0.0000 O.3     1  UNL1       -0.3876
      4 O           9.0820   -1.5436    0.0000 O.3     1  UNL1       -0.4606
      5 O           9.6880   -1.6337    0.0000 O.3     1  UNL1       -0.3662
      6 O          12.6474   -0.4295    0.0000 O.3     1  UNL1       -0.3916
      7 O           3.6422    0.8765    0.0000 O.2     1  UNL1       -0.4303
      8 O          10.1800   -2.8832    0.0000 O.2     1  UNL1       -0.2512
      9 O           2.0000    1.4272    0.0000 O.2     1  UNL1       -0.2452
     10 C           8.4826    0.5003    0.0000 C.3     1  UNL1        0.0072
     11 C           9.3486    0.0003    0.0000 C.3     1  UNL1        0.0925
     12 C           8.4826    1.5003    0.0000 C.3     1  UNL1       -0.0054
     13 C           7.5886    2.0350    0.0000 C.3     1  UNL1        0.0752
     14 C           6.6826    1.5212    0.0000 C.3     1  UNL1        0.0062
     15 C           7.5886   -0.0343    0.0000 C.3     1  UNL1        0.0663
     16 C          10.2146    0.5003    0.0000 C.3     1  UNL1        0.0824
     17 C           6.6826    0.4795    0.0000 C.3     1  UNL1       -0.0176
     18 C           9.3486    2.0003    0.0000 C.3     1  UNL1       -0.0446
     19 C           8.9835   -0.9240    0.0000 C.3     1  UNL1        0.1685
     20 C           9.8555   -0.9097    0.0000 C.3     1  UNL1        0.1186
     21 C           5.9203    2.2219    0.0000 C.3     1  UNL1       -0.0048
     22 C          10.2146    1.5003    0.0000 C.3     1  UNL1       -0.0227
     23 C           7.3786    3.0489    0.0000 C.3     1  UNL1       -0.0226
     24 C           6.3495    3.1642    0.0000 C.3     1  UNL1       -0.0429
     25 C          11.2562    0.5164    0.0000 C.3     1  UNL1        0.0031
     26 C           5.8127    1.0278    0.0000 C.3     1  UNL1       -0.0563
     27 C          11.0191   -1.0397    0.0000 C.3     1  UNL1        0.0113
     28 C          11.6619   -0.2596    0.0000 C.3     1  UNL1        0.0612
     29 C           4.9402    2.0232    0.0000 C.ar    1  UNL1       -0.0085
     30 C           4.2781    2.7727    0.0000 C.ar    1  UNL1       -0.0486
     31 C           4.6222    1.0752    0.0000 C.ar    1  UNL1        0.0994
     32 C           9.2444   -2.5303    0.0000 C.2     1  UNL1        0.3042
     33 C           3.2980    2.5740    0.0000 C.ar    1  UNL1        0.0233
     34 C           8.4709   -3.1642    0.0000 C.3     1  UNL1        0.0332
     35 C           2.9801    1.6259    0.0000 C.ar    1  UNL1        0.3367
     36 H           7.7465    0.9253    0.0000 H       1  UNL1        0.0338
     37 H           9.2187    1.0753    0.0000 H       1  UNL1        0.0332
     38 H           6.9582   -0.6045    0.0000 H       1  UNL1        0.0600
     39 H           6.0717    0.5856    0.0000 H       1  UNL1        0.0297
     40 H           6.4735   -0.1042    0.0000 H       1  UNL1        0.0297
     41 H           9.7472    2.4753    0.0000 H       1  UNL1        0.0270
     42 H           8.9501    2.4753    0.0000 H       1  UNL1        0.0270
     43 H           8.7508   -1.4987    0.0000 H       1  UNL1        0.0916
     44 H          10.0314   -1.5042    0.0000 H       1  UNL1        0.0743
     45 H           5.5344    2.7072    0.0000 H       1  UNL1        0.0356
     46 H          10.8252    1.3927    0.0000 H       1  UNL1        0.0293
     47 H          10.4267    2.0830    0.0000 H       1  UNL1        0.0293
     48 H           7.9955    3.1102    0.0000 H       1  UNL1        0.0293
     49 H           7.3824    3.6689    0.0000 H       1  UNL1        0.0293
     50 H           6.4829    3.7697    0.0000 H       1  UNL1        0.0272
     51 H           5.7614    3.3605    0.0000 H       1  UNL1        0.0272
     52 H          11.8434    0.7151    0.0000 H       1  UNL1        0.0318
     53 H          11.1507    1.1274    0.0000 H       1  UNL1        0.0318
     54 H           5.5069    1.5672    0.0000 H       1  UNL1        0.0236
     55 H           5.2734    0.7220    0.0000 H       1  UNL1        0.0236
     56 H           6.1186    0.4885    0.0000 H       1  UNL1        0.0236
     57 H          10.8335   -1.6313    0.0000 H       1  UNL1        0.0326
     58 H          11.5642   -1.3351    0.0000 H       1  UNL1        0.0326
     59 H          12.0271    0.2414    0.0000 H       1  UNL1        0.0595
     60 H           8.4633    3.1483    0.0000 H       1  UNL1        0.2102
     61 H          10.8730    1.7537    0.0000 H       1  UNL1        0.2102
     62 H          10.2874   -1.4755    0.0000 H       1  UNL1        0.2125
     63 H          12.8617   -1.0113    0.0000 H       1  UNL1        0.2098
     64 H           4.4753    3.3605    0.0000 H       1  UNL1        0.0623
     65 H           5.0327    0.6105    0.0000 H       1  UNL1        0.1033
     66 H           2.8876    3.0386    0.0000 H       1  UNL1        0.0689
     67 H           8.0779   -2.6847    0.0000 H       1  UNL1        0.0342
     68 H           7.9914   -3.5572    0.0000 H       1  UNL1        0.0342
     69 H           8.8639   -3.6437    0.0000 H       1  UNL1        0.0342
@<TRIPOS>BOND
     1     1    15    1
     2     1    19    1
     3    13     2    1
     4     2    60    1
     5    16     3    1
     6     3    61    1
     7    20     4    1
     8     4    32    1
     9    19     5    1
    10     5    62    1
    11    28     6    1
    12     6    63    1
    13     7    31   ar
    14     7    35   ar
    15     8    32    2
    16     9    35    2
    17    10    11    1
    18    10    12    1
    19    10    15    1
    20    10    36    1
    21    11    16    1
    22    11    19    1
    23    11    20    1
    24    12    13    1
    25    12    18    1
    26    12    37    1
    27    13    14    1
    28    13    23    1
    29    14    17    1
    30    14    21    1
    31    14    26    1
    32    15    17    1
    33    15    38    1
    34    16    22    1
    35    16    25    1
    36    17    39    1
    37    17    40    1
    38    18    22    1
    39    18    41    1
    40    18    42    1
    41    19    43    1
    42    20    27    1
    43    20    44    1
    44    21    24    1
    45    21    29    1
    46    21    45    1
    47    22    46    1
    48    22    47    1
    49    23    24    1
    50    23    48    1
    51    23    49    1
    52    24    50    1
    53    24    51    1
    54    25    28    1
    55    25    52    1
    56    25    53    1
    57    26    54    1
    58    26    55    1
    59    26    56    1
    60    27    28    1
    61    27    57    1
    62    27    58    1
    63    28    59    1
    64    29    30   ar
    65    29    31   ar
    66    30    33   ar
    67    30    64    1
    68    31    65    1
    69    32    34    1
    70    33    35   ar
    71    33    66    1
    72    34    67    1
    73    34    68    1
    74    34    69    1
