@<TRIPOS>MOLECULE
IMPHY012044
 33 34 0 0 0
SMALL
GASTEIGER

@<TRIPOS>ATOM
      1 O           7.1672    2.0288    0.0000 O.2     1  UNL1       -0.2756
      2 N           2.8090   -1.7500    0.0000 N.3     1  UNL1       -0.2915
      3 N           5.4071    1.7500    0.0000 N.am    1  UNL1       -0.2904
      4 C           2.3090   -3.2888    0.0000 C.3     1  UNL1       -0.0390
      5 C           3.3090   -3.2888    0.0000 C.3     1  UNL1       -0.0390
      6 C           2.0000   -2.3378    0.0000 C.3     1  UNL1       -0.0002
      7 C           3.6180   -2.3378    0.0000 C.3     1  UNL1       -0.0002
      8 C           4.5981    2.3378    0.0000 C.3     1  UNL1        0.0160
      9 C           4.9071    3.2888    0.0000 C.3     1  UNL1       -0.0289
     10 C           2.8090   -0.7500    0.0000 C.3     1  UNL1        0.0609
     11 C           5.9071    3.2888    0.0000 C.3     1  UNL1        0.0256
     12 C           6.2161    2.3378    0.0000 C.2     1  UNL1        0.2163
     13 C           5.4071    0.7500    0.0000 C.3     1  UNL1        0.0763
     14 C           3.6750   -0.2500    0.0000 C.1     1  UNL1       -0.0851
     15 C           4.5411    0.2500    0.0000 C.1     1  UNL1       -0.0818
     16 H           1.7026   -3.4178    0.0000 H       1  UNL1        0.0278
     17 H           2.3738   -3.9054    0.0000 H       1  UNL1        0.0278
     18 H           3.2442   -3.9054    0.0000 H       1  UNL1        0.0278
     19 H           3.9155   -3.4178    0.0000 H       1  UNL1        0.0278
     20 H           1.6900   -1.8008    0.0000 H       1  UNL1        0.0427
     21 H           1.4336   -2.5900    0.0000 H       1  UNL1        0.0427
     22 H           4.1844   -2.5900    0.0000 H       1  UNL1        0.0427
     23 H           3.9280   -1.8008    0.0000 H       1  UNL1        0.0427
     24 H           4.0317    2.5900    0.0000 H       1  UNL1        0.0465
     25 H           4.2881    1.8008    0.0000 H       1  UNL1        0.0465
     26 H           4.9719    3.9054    0.0000 H       1  UNL1        0.0285
     27 H           4.3006    3.4178    0.0000 H       1  UNL1        0.0285
     28 H           2.5970   -0.1674    0.0000 H       1  UNL1        0.0563
     29 H           2.1984   -0.8577    0.0000 H       1  UNL1        0.0563
     30 H           6.5135    3.4178    0.0000 H       1  UNL1        0.0359
     31 H           5.8423    3.9054    0.0000 H       1  UNL1        0.0359
     32 H           5.6192    0.1674    0.0000 H       1  UNL1        0.0601
     33 H           6.0177    0.8577    0.0000 H       1  UNL1        0.0601
@<TRIPOS>BOND
     1     1    12    2
     2     2     6    1
     3     2     7    1
     4     2    10    1
     5     3     8    1
     6     3    12   am
     7     3    13    1
     8     4     5    1
     9     4     6    1
    10     4    16    1
    11     4    17    1
    12     5     7    1
    13     5    18    1
    14     5    19    1
    15     6    20    1
    16     6    21    1
    17     7    22    1
    18     7    23    1
    19     8     9    1
    20     8    24    1
    21     8    25    1
    22     9    11    1
    23     9    26    1
    24     9    27    1
    25    10    14    1
    26    10    28    1
    27    10    29    1
    28    11    12    1
    29    11    30    1
    30    11    31    1
    31    13    15    1
    32    13    32    1
    33    13    33    1
    34    14    15    3
