@<TRIPOS>MOLECULE
IMPHY000646
 23 23 0 0 0
SMALL
GASTEIGER

@<TRIPOS>ATOM
      1 O           5.4641   -1.8100    0.0000 O.2     1  UNL1       -0.2424
      2 N           3.7320    1.1900    0.0000 N.pl3   1  UNL1       -0.3125
      3 N           5.4641    1.1900    0.0000 N.ar    1  UNL1       -0.3003
      4 N           4.5981   -0.3100    0.0000 N.ar    1  UNL1       -0.1595
      5 N           6.3301   -0.3100    0.0000 N.ar    1  UNL1       -0.1597
      6 N           7.1962    1.1900    0.0000 N.pl3   1  UNL1       -0.3288
      7 C           2.8660    0.6900    0.0000 C.3     1  UNL1        0.0176
      8 C           2.0000    1.1900    0.0000 C.3     1  UNL1       -0.0469
      9 C           2.8660   -0.3100    0.0000 C.3     1  UNL1       -0.0469
     10 C           4.5981    0.6900    0.0000 C.ar    1  UNL1        0.2003
     11 C           6.3301    0.6900    0.0000 C.ar    1  UNL1        0.1975
     12 C           5.4641   -0.8100    0.0000 C.ar    1  UNL1        0.3734
     13 H           3.4030    0.3800    0.0000 H       1  UNL1        0.0493
     14 H           3.7320    1.8100    0.0000 H       1  UNL1        0.1491
     15 H           2.3100    1.7269    0.0000 H       1  UNL1        0.0247
     16 H           1.4631    1.5000    0.0000 H       1  UNL1        0.0247
     17 H           1.6900    0.6531    0.0000 H       1  UNL1        0.0247
     18 H           2.2460   -0.3100    0.0000 H       1  UNL1        0.0247
     19 H           2.8660   -0.9300    0.0000 H       1  UNL1        0.0247
     20 H           3.4860   -0.3100    0.0000 H       1  UNL1        0.0247
     21 H           5.4641    1.8100    0.0000 H       1  UNL1        0.1712
     22 H           7.7331    0.8800    0.0000 H       1  UNL1        0.1451
     23 H           7.1962    1.8100    0.0000 H       1  UNL1        0.1451
@<TRIPOS>BOND
     1     1    12    2
     2     2     7    1
     3     2    10    1
     4     2    14    1
     5     3    10   ar
     6     3    11   ar
     7     3    21    1
     8     4    10   ar
     9     4    12   ar
    10     5    11   ar
    11     5    12   ar
    12     6    11    1
    13     6    22    1
    14     6    23    1
    15     7     8    1
    16     7     9    1
    17     7    13    1
    18     8    15    1
    19     8    16    1
    20     8    17    1
    21     9    18    1
    22     9    19    1
    23     9    20    1
