@<TRIPOS>MOLECULE
IMPHY010225
 26 27 0 0 0
SMALL
GASTEIGER

@<TRIPOS>ATOM
      1 O           4.9889   -2.2305    0.0000 O.3     1  UNL1       -0.4147
      2 O           5.9674    1.4862    0.0000 O.3     1  UNL1       -0.4644
      3 O           4.3211    2.0243    0.0000 O.2     1  UNL1       -0.2449
      4 N           4.6783   -1.2800    0.0000 N.ar    1  UNL1       -0.1890
      5 C           3.7320    0.0247    0.0000 C.ar    1  UNL1        0.0172
      6 C           3.7320   -0.9753    0.0000 C.ar    1  UNL1        0.0881
      7 C           4.6783    0.3295    0.0000 C.ar    1  UNL1        0.0875
      8 C           5.2619   -0.4753    0.0000 C.ar    1  UNL1        0.0592
      9 C           2.8660    0.5247    0.0000 C.ar    1  UNL1       -0.0517
     10 C           2.8660   -1.4753    0.0000 C.ar    1  UNL1       -0.0343
     11 C           2.0000    0.0247    0.0000 C.ar    1  UNL1       -0.0611
     12 C           2.0000   -0.9753    0.0000 C.ar    1  UNL1       -0.0597
     13 C           4.9889    1.2800    0.0000 C.2     1  UNL1        0.3411
     14 C           5.9674   -2.4367    0.0000 C.3     1  UNL1        0.1052
     15 C           6.2781    2.4367    0.0000 C.3     1  UNL1        0.0820
     16 H           5.8819   -0.4753    0.0000 H       1  UNL1        0.0853
     17 H           2.8660    1.1447    0.0000 H       1  UNL1        0.0624
     18 H           2.8660   -2.0953    0.0000 H       1  UNL1        0.0639
     19 H           1.4631    0.3347    0.0000 H       1  UNL1        0.0618
     20 H           1.4631   -1.2853    0.0000 H       1  UNL1        0.0618
     21 H           5.8396   -3.0434    0.0000 H       1  UNL1        0.0686
     22 H           6.5741   -2.5646    0.0000 H       1  UNL1        0.0686
     23 H           6.0953   -1.8301    0.0000 H       1  UNL1        0.0686
     24 H           6.8674    2.2441    0.0000 H       1  UNL1        0.0661
     25 H           6.4707    3.0260    0.0000 H       1  UNL1        0.0661
     26 H           5.6888    2.6293    0.0000 H       1  UNL1        0.0661
@<TRIPOS>BOND
     1     1     4    1
     2     1    14    1
     3     2    13    1
     4     2    15    1
     5     3    13    2
     6     4     6   ar
     7     4     8   ar
     8     5     6   ar
     9     5     7   ar
    10     5     9   ar
    11     6    10   ar
    12     7     8   ar
    13     7    13    1
    14     8    16    1
    15     9    11   ar
    16     9    17    1
    17    10    12   ar
    18    10    18    1
    19    11    12   ar
    20    11    19    1
    21    12    20    1
    22    14    21    1
    23    14    22    1
    24    14    23    1
    25    15    24    1
    26    15    25    1
    27    15    26    1
