@<TRIPOS>MOLECULE
IMPHY010885
 30 29 0 0 0
SMALL
GASTEIGER

@<TRIPOS>ATOM
      1 N           2.8660   -0.2500    0.0000 N.3     1  UNL1       -0.3083
      2 N           7.1962    0.2500    0.0000 N.3     1  UNL1       -0.3083
      3 C           4.5981   -0.2500    0.0000 C.3     1  UNL1       -0.0391
      4 C           5.4641    0.2500    0.0000 C.3     1  UNL1       -0.0391
      5 C           3.7320    0.2500    0.0000 C.3     1  UNL1       -0.0016
      6 C           6.3301   -0.2500    0.0000 C.3     1  UNL1       -0.0016
      7 C           2.0000    0.2500    0.0000 C.3     1  UNL1       -0.0131
      8 C           2.8660   -1.2500    0.0000 C.3     1  UNL1       -0.0131
      9 C           8.0622   -0.2500    0.0000 C.3     1  UNL1       -0.0131
     10 C           7.1962    1.2500    0.0000 C.3     1  UNL1       -0.0131
     11 H           4.1996   -0.7249    0.0000 H       1  UNL1        0.0278
     12 H           4.9966   -0.7249    0.0000 H       1  UNL1        0.0278
     13 H           5.8626    0.7249    0.0000 H       1  UNL1        0.0278
     14 H           5.0656    0.7249    0.0000 H       1  UNL1        0.0278
     15 H           4.1306    0.7249    0.0000 H       1  UNL1        0.0426
     16 H           3.3335    0.7249    0.0000 H       1  UNL1        0.0426
     17 H           5.9316   -0.7249    0.0000 H       1  UNL1        0.0426
     18 H           6.7287   -0.7249    0.0000 H       1  UNL1        0.0426
     19 H           2.3100    0.7869    0.0000 H       1  UNL1        0.0391
     20 H           1.4631    0.5600    0.0000 H       1  UNL1        0.0391
     21 H           1.6900   -0.2869    0.0000 H       1  UNL1        0.0391
     22 H           2.2460   -1.2500    0.0000 H       1  UNL1        0.0391
     23 H           2.8660   -1.8700    0.0000 H       1  UNL1        0.0391
     24 H           3.4860   -1.2500    0.0000 H       1  UNL1        0.0391
     25 H           7.7522   -0.7869    0.0000 H       1  UNL1        0.0391
     26 H           8.5991   -0.5600    0.0000 H       1  UNL1        0.0391
     27 H           8.3722    0.2869    0.0000 H       1  UNL1        0.0391
     28 H           7.8162    1.2500    0.0000 H       1  UNL1        0.0391
     29 H           7.1962    1.8700    0.0000 H       1  UNL1        0.0391
     30 H           6.5762    1.2500    0.0000 H       1  UNL1        0.0391
@<TRIPOS>BOND
     1     1     5    1
     2     1     7    1
     3     1     8    1
     4     2     6    1
     5     2     9    1
     6     2    10    1
     7     3     4    1
     8     3     5    1
     9     3    11    1
    10     3    12    1
    11     4     6    1
    12     4    13    1
    13     4    14    1
    14     5    15    1
    15     5    16    1
    16     6    17    1
    17     6    18    1
    18     7    19    1
    19     7    20    1
    20     7    21    1
    21     8    22    1
    22     8    23    1
    23     8    24    1
    24     9    25    1
    25     9    26    1
    26     9    27    1
    27    10    28    1
    28    10    29    1
    29    10    30    1
