@<TRIPOS>MOLECULE
IMPHY003994
 40 41 0 0 0
SMALL
GASTEIGER

@<TRIPOS>ATOM
      1 O           2.5369    0.7327    0.0000 O.3     1  UNL1       -0.3907
      2 C           6.8671   -0.7673    0.0000 C.3     1  UNL1       -0.0255
      3 C           6.8671    0.2327    0.0000 C.3     1  UNL1       -0.0142
      4 C           6.0010   -1.2673    0.0000 C.3     1  UNL1       -0.0465
      5 C           6.0010    0.7327    0.0000 C.3     1  UNL1       -0.0394
      6 C           7.7610   -1.3020    0.0000 C.3     1  UNL1       -0.0468
      7 C           5.1350    0.2327    0.0000 C.3     1  UNL1       -0.0174
      8 C           5.1350   -0.7673    0.0000 C.3     1  UNL1       -0.0459
      9 C           7.7610    0.7674    0.0000 C.2     1  UNL1       -0.0730
     10 C           8.6671   -0.7881    0.0000 C.3     1  UNL1       -0.0489
     11 C           6.8671   -1.7673    0.0000 C.3     1  UNL1       -0.0590
     12 C           8.6671    0.2535    0.0000 C.3     1  UNL1       -0.0317
     13 C           4.2690    0.7327    0.0000 C.2     1  UNL1       -0.0485
     14 C           7.7494    1.7673    0.0000 C.2     1  UNL1       -0.0992
     15 C           3.4030    0.2327    0.0000 C.3     1  UNL1        0.0653
     16 C           4.2690    1.7327    0.0000 C.2     1  UNL1       -0.0970
     17 H           6.8605    1.0827    0.0000 H       1  UNL1        0.0351
     18 H           5.6025   -1.7422    0.0000 H       1  UNL1        0.0271
     19 H           6.3996   -1.7422    0.0000 H       1  UNL1        0.0271
     20 H           6.3996    1.2076    0.0000 H       1  UNL1        0.0277
     21 H           5.6025    1.2076    0.0000 H       1  UNL1        0.0277
     22 H           7.3564   -1.7718    0.0000 H       1  UNL1        0.0271
     23 H           8.1546   -1.7810    0.0000 H       1  UNL1        0.0271
     24 H           5.1350    0.8527    0.0000 H       1  UNL1        0.0346
     25 H           4.5244   -0.6596    0.0000 H       1  UNL1        0.0271
     26 H           4.9230   -1.3499    0.0000 H       1  UNL1        0.0271
     27 H           8.8761   -1.3718    0.0000 H       1  UNL1        0.0268
     28 H           9.2779   -0.6820    0.0000 H       1  UNL1        0.0268
     29 H           6.2471   -1.7673    0.0000 H       1  UNL1        0.0235
     30 H           6.8671   -2.3873    0.0000 H       1  UNL1        0.0235
     31 H           7.4871   -1.7673    0.0000 H       1  UNL1        0.0235
     32 H           9.2779    0.1474    0.0000 H       1  UNL1        0.0310
     33 H           8.8761    0.8372    0.0000 H       1  UNL1        0.0310
     34 H           8.2828    2.0835    0.0000 H       1  UNL1        0.0534
     35 H           7.2090    2.0711    0.0000 H       1  UNL1        0.0534
     36 H           3.0044   -0.2422    0.0000 H       1  UNL1        0.0604
     37 H           3.8015   -0.2422    0.0000 H       1  UNL1        0.0604
     38 H           4.8059    2.0427    0.0000 H       1  UNL1        0.0535
     39 H           3.7320    2.0427    0.0000 H       1  UNL1        0.0535
     40 H           2.0000    0.4227    0.0000 H       1  UNL1        0.2098
@<TRIPOS>BOND
     1     1    15    1
     2     1    40    1
     3     2     3    1
     4     2     4    1
     5     2     6    1
     6     2    11    1
     7     3     5    1
     8     3     9    1
     9     3    17    1
    10     4     8    1
    11     4    18    1
    12     4    19    1
    13     5     7    1
    14     5    20    1
    15     5    21    1
    16     6    10    1
    17     6    22    1
    18     6    23    1
    19     7     8    1
    20     7    13    1
    21     7    24    1
    22     8    25    1
    23     8    26    1
    24     9    12    1
    25     9    14    2
    26    10    12    1
    27    10    27    1
    28    10    28    1
    29    11    29    1
    30    11    30    1
    31    11    31    1
    32    12    32    1
    33    12    33    1
    34    13    15    1
    35    13    16    2
    36    14    34    1
    37    14    35    1
    38    15    36    1
    39    15    37    1
    40    16    38    1
    41    16    39    1
