@<TRIPOS>MOLECULE
IMPHY015243
 28 27 0 0 0
SMALL
GASTEIGER

@<TRIPOS>ATOM
      1 O           4.5981   -0.7500    0.0000 O.2     1  UNL1       -0.2974
      2 C           6.3301    0.2500    0.0000 C.3     1  UNL1       -0.0401
      3 C           2.8660    0.2500    0.0000 C.3     1  UNL1       -0.0401
      4 C           5.4641    0.7500    0.0000 C.3     1  UNL1        0.0082
      5 C           3.7320    0.7500    0.0000 C.3     1  UNL1        0.0082
      6 C           4.5981    0.2500    0.0000 C.2     1  UNL1        0.1339
      7 C           7.1962    0.7500    0.0000 C.3     1  UNL1       -0.0623
      8 C           6.3301   -0.7500    0.0000 C.3     1  UNL1       -0.0623
      9 C           2.0000    0.7500    0.0000 C.3     1  UNL1       -0.0623
     10 C           2.8660   -0.7500    0.0000 C.3     1  UNL1       -0.0623
     11 H           6.8671   -0.0600    0.0000 H       1  UNL1        0.0299
     12 H           2.8660    0.8700    0.0000 H       1  UNL1        0.0299
     13 H           5.8626    1.2250    0.0000 H       1  UNL1        0.0344
     14 H           5.0656    1.2250    0.0000 H       1  UNL1        0.0344
     15 H           4.1306    1.2250    0.0000 H       1  UNL1        0.0344
     16 H           3.3335    1.2250    0.0000 H       1  UNL1        0.0344
     17 H           7.5062    0.2131    0.0000 H       1  UNL1        0.0232
     18 H           7.7331    1.0600    0.0000 H       1  UNL1        0.0232
     19 H           6.8862    1.2869    0.0000 H       1  UNL1        0.0232
     20 H           5.7101   -0.7500    0.0000 H       1  UNL1        0.0232
     21 H           6.3301   -1.3700    0.0000 H       1  UNL1        0.0232
     22 H           6.9501   -0.7500    0.0000 H       1  UNL1        0.0232
     23 H           2.3100    1.2869    0.0000 H       1  UNL1        0.0232
     24 H           1.4631    1.0600    0.0000 H       1  UNL1        0.0232
     25 H           1.6900    0.2131    0.0000 H       1  UNL1        0.0232
     26 H           2.2460   -0.7500    0.0000 H       1  UNL1        0.0232
     27 H           2.8660   -1.3700    0.0000 H       1  UNL1        0.0232
     28 H           3.4860   -0.7500    0.0000 H       1  UNL1        0.0232
@<TRIPOS>BOND
     1     1     6    2
     2     2     4    1
     3     2     7    1
     4     2     8    1
     5     2    11    1
     6     3     5    1
     7     3     9    1
     8     3    10    1
     9     3    12    1
    10     4     6    1
    11     4    13    1
    12     4    14    1
    13     5     6    1
    14     5    15    1
    15     5    16    1
    16     7    17    1
    17     7    18    1
    18     7    19    1
    19     8    20    1
    20     8    21    1
    21     8    22    1
    22     9    23    1
    23     9    24    1
    24     9    25    1
    25    10    26    1
    26    10    27    1
    27    10    28    1
