@<TRIPOS>MOLECULE
IMPHY004069
 15 15 0 0 0
SMALL
GASTEIGER

@<TRIPOS>ATOM
      1 S           4.8479   -1.0419    0.0000 S.2     1  UNL1        0.0058
      2 O           3.5878    0.2181    0.0000 O.3     1  UNL1       -0.4650
      3 N           3.0878   -1.3207    0.0000 N.am    1  UNL1       -0.3054
      4 C           2.5878    0.2181    0.0000 C.3     1  UNL1        0.1354
      5 C           2.2788   -0.7329    0.0000 C.3     1  UNL1        0.0530
      6 C           3.8968   -0.7329    0.0000 C.2     1  UNL1        0.2288
      7 C           2.0000    1.0272    0.0000 C.2     1  UNL1       -0.0496
      8 C           2.4067    1.9407    0.0000 C.2     1  UNL1       -0.0991
      9 H           2.8693    0.7706    0.0000 H       1  UNL1        0.0795
     10 H           1.7124   -0.4807    0.0000 H       1  UNL1        0.0502
     11 H           1.9688   -1.2698    0.0000 H       1  UNL1        0.0502
     12 H           3.0878   -1.9407    0.0000 H       1  UNL1        0.1495
     13 H           1.3834    0.9623    0.0000 H       1  UNL1        0.0603
     14 H           3.0233    2.0055    0.0000 H       1  UNL1        0.0533
     15 H           2.0423    2.4423    0.0000 H       1  UNL1        0.0533
@<TRIPOS>BOND
     1     1     6    2
     2     2     4    1
     3     2     6    1
     4     3     5    1
     5     3     6    1
     6     3    12    1
     7     4     5    1
     8     4     7    1
     9     4     9    1
    10     5    10    1
    11     5    11    1
    12     7     8    2
    13     7    13    1
    14     8    14    1
    15     8    15    1
