@<TRIPOS>MOLECULE
IMPHY009184
 76 80 0 0 0
SMALL
GASTEIGER

@<TRIPOS>ATOM
      1 O           6.5422   -2.2949    0.0000 O.3     1  UNL1       -0.4536
      2 O           5.5972   -1.8334    0.0000 O.3     1  UNL1       -0.4534
      3 O           6.3243    0.7733    0.0000 O.3     1  UNL1       -0.3870
      4 O           9.0602    2.9971    0.0000 O.3     1  UNL1       -0.3867
      5 O           7.4262    3.8612    0.0000 O.2     1  UNL1       -0.2920
      6 O           7.5289   -3.7185    0.0000 O.2     1  UNL1       -0.2511
      7 O          10.9049    0.8038    0.0000 O.3     1  UNL1       -0.3907
      8 O           4.6270   -0.3986    0.0000 O.2     1  UNL1       -0.2449
      9 N           2.8993   -0.5214    0.0000 N.pl3   1  UNL1       -0.3463
     10 C           8.2201   -1.1319    0.0000 C.3     1  UNL1        0.0209
     11 C           7.3640   -1.7253    0.0000 C.3     1  UNL1        0.1598
     12 C           8.3063   -2.1704    0.0000 C.3     1  UNL1        0.0161
     13 C           8.1263   -0.0945    0.0000 C.3     1  UNL1        0.0145
     14 C           6.4256   -1.2733    0.0000 C.3     1  UNL1        0.1488
     15 C           7.2253    0.3394    0.0000 C.3     1  UNL1        0.0857
     16 C           6.3557   -0.2340    0.0000 C.3     1  UNL1        0.0271
     17 C           9.3029   -2.0880    0.0000 C.3     1  UNL1       -0.0556
     18 C           7.8794   -3.0747    0.0000 C.3     1  UNL1       -0.0556
     19 C           7.0028    1.3143    0.0000 C.3     1  UNL1        0.0200
     20 C           9.0272    0.3394    0.0000 C.2     1  UNL1       -0.0739
     21 C           7.6263    2.0962    0.0000 C.3     1  UNL1        0.0605
     22 C           5.3577   -0.2972    0.0000 C.3     1  UNL1       -0.0562
     23 C           9.2498    1.3143    0.0000 C.2     1  UNL1       -0.0192
     24 C           8.6263    2.0962    0.0000 C.3     1  UNL1        0.0888
     25 C           6.0730    1.6660    0.0000 C.2     1  UNL1       -0.0712
     26 C           7.0765    2.9244    0.0000 C.2     1  UNL1        0.1651
     27 C           6.6246   -3.2915    0.0000 C.2     1  UNL1        0.3046
     28 C           6.1185    2.6591    0.0000 C.2     1  UNL1       -0.0112
     29 C           4.6979   -1.3961    0.0000 C.2     1  UNL1        0.3414
     30 C          10.2247    1.5368    0.0000 C.3     1  UNL1        0.0677
     31 C           5.8027   -3.8612    0.0000 C.3     1  UNL1        0.0333
     32 C           5.3366    3.2826    0.0000 C.3     1  UNL1       -0.0367
     33 C           3.8695   -1.9562    0.0000 C.ar    1  UNL1        0.0797
     34 C           2.9702   -1.5189    0.0000 C.ar    1  UNL1        0.0410
     35 C           3.9404   -2.9537    0.0000 C.ar    1  UNL1       -0.0460
     36 C           2.1418   -2.0790    0.0000 C.ar    1  UNL1       -0.0401
     37 C           3.1120   -3.5138    0.0000 C.ar    1  UNL1       -0.0609
     38 C           2.2127   -3.0765    0.0000 C.ar    1  UNL1       -0.0600
     39 C           2.0000   -0.0840    0.0000 C.3     1  UNL1       -0.0024
     40 H           9.0670   -1.0584    0.0000 H       1  UNL1        0.0354
     41 H           8.8657   -0.5138    0.0000 H       1  UNL1        0.0375
     42 H           5.8685   -1.0011    0.0000 H       1  UNL1        0.0778
     43 H           6.1589    0.3539    0.0000 H       1  UNL1        0.0363
     44 H           9.3540   -2.7059    0.0000 H       1  UNL1        0.0236
     45 H           9.9208   -2.0369    0.0000 H       1  UNL1        0.0236
     46 H           7.3187   -2.8100    0.0000 H       1  UNL1        0.0236
     47 H           7.6147   -3.6354    0.0000 H       1  UNL1        0.0236
     48 H           8.4400   -3.3394    0.0000 H       1  UNL1        0.0236
     49 H           9.2518   -1.4701    0.0000 H       1  UNL1        0.0236
     50 H           7.8315    1.1252    0.0000 H       1  UNL1        0.0379
     51 H           9.5120   -0.0472    0.0000 H       1  UNL1        0.0577
     52 H           8.0281    2.8452    0.0000 H       1  UNL1        0.0416
     53 H           5.3186    0.3215    0.0000 H       1  UNL1        0.0234
     54 H           4.7390   -0.3364    0.0000 H       1  UNL1        0.0234
     55 H           5.3969   -0.9160    0.0000 H       1  UNL1        0.0234
     56 H           5.7061    0.7270    0.0000 H       1  UNL1        0.2102
     57 H           9.2424    2.1656    0.0000 H       1  UNL1        0.0648
     58 H           5.5550    1.3254    0.0000 H       1  UNL1        0.0580
     59 H          10.7455    1.8732    0.0000 H       1  UNL1        0.0605
     60 H           9.9839    2.1082    0.0000 H       1  UNL1        0.0605
     61 H           9.6784    3.0435    0.0000 H       1  UNL1        0.2102
     62 H           5.4495   -3.3516    0.0000 H       1  UNL1        0.0342
     63 H           5.2932   -4.2144    0.0000 H       1  UNL1        0.0342
     64 H           6.1559   -4.3708    0.0000 H       1  UNL1        0.0342
     65 H           5.7232    3.7673    0.0000 H       1  UNL1        0.0278
     66 H           4.8519    3.6691    0.0000 H       1  UNL1        0.0278
     67 H           4.9501    2.7978    0.0000 H       1  UNL1        0.0278
     68 H          11.5093    0.9418    0.0000 H       1  UNL1        0.2098
     69 H           4.4979   -3.2249    0.0000 H       1  UNL1        0.0626
     70 H           1.5842   -1.8078    0.0000 H       1  UNL1        0.0636
     71 H           3.1559   -4.1323    0.0000 H       1  UNL1        0.0618
     72 H           3.4129   -0.1741    0.0000 H       1  UNL1        0.1458
     73 H           1.6990   -3.4238    0.0000 H       1  UNL1        0.0618
     74 H           2.2712    0.4735    0.0000 H       1  UNL1        0.0425
     75 H           1.4424    0.1871    0.0000 H       1  UNL1        0.0425
     76 H           1.7288   -0.6416    0.0000 H       1  UNL1        0.0425
@<TRIPOS>BOND
     1    11     1    1
     2     1    27    1
     3    14     2    1
     4     2    29    1
     5    15     3    1
     6     3    56    1
     7    24     4    1
     8     4    61    1
     9     5    26    2
    10     6    27    2
    11     7    30    1
    12     7    68    1
    13     8    29    2
    14     9    34    1
    15     9    39    1
    16     9    72    1
    17    10    11    1
    18    10    12    1
    19    10    13    1
    20    10    40    1
    21    11    12    1
    22    11    14    1
    23    12    17    1
    24    12    18    1
    25    13    15    1
    26    13    20    1
    27    13    41    1
    28    14    16    1
    29    14    42    1
    30    15    16    1
    31    15    19    1
    32    16    22    1
    33    16    43    1
    34    17    44    1
    35    17    45    1
    36    17    49    1
    37    18    46    1
    38    18    47    1
    39    18    48    1
    40    19    21    1
    41    19    25    1
    42    19    50    1
    43    20    23    2
    44    20    51    1
    45    21    24    1
    46    21    26    1
    47    21    52    1
    48    22    53    1
    49    22    54    1
    50    22    55    1
    51    23    24    1
    52    23    30    1
    53    24    57    1
    54    25    28    2
    55    25    58    1
    56    26    28    1
    57    27    31    1
    58    28    32    1
    59    29    33    1
    60    30    59    1
    61    30    60    1
    62    31    62    1
    63    31    63    1
    64    31    64    1
    65    32    65    1
    66    32    66    1
    67    32    67    1
    68    33    34   ar
    69    33    35   ar
    70    34    36   ar
    71    35    37   ar
    72    35    69    1
    73    36    38   ar
    74    36    70    1
    75    37    38   ar
    76    37    71    1
    77    38    73    1
    78    39    74    1
    79    39    75    1
    80    39    76    1
