@<TRIPOS>MOLECULE
IMPHY004788
 46 47 0 0 0
SMALL
GASTEIGER

@<TRIPOS>ATOM
      1 O          10.6603   -0.2500    0.0000 O.3     1  UNL1       -0.3917
      2 O           4.5981    1.2500    0.0000 O.2     1  UNL1       -0.2920
      3 N           7.1962   -0.2500    0.0000 N.3     1  UNL1       -0.2953
      4 C           8.0622    0.2500    0.0000 C.3     1  UNL1        0.0311
      5 C           6.3301    0.2500    0.0000 C.3     1  UNL1        0.0211
      6 C           8.9282   -0.2500    0.0000 C.3     1  UNL1       -0.0076
      7 C           6.3301    1.2500    0.0000 C.3     1  UNL1       -0.0186
      8 C           5.4641   -0.2500    0.0000 C.3     1  UNL1        0.0264
      9 C           8.0622    1.2500    0.0000 C.2     1  UNL1       -0.0708
     10 C           9.7942    0.2500    0.0000 C.3     1  UNL1        0.0567
     11 C           7.1962    1.7500    0.0000 C.2     1  UNL1       -0.0850
     12 C           7.1962   -1.2500    0.0000 C.3     1  UNL1       -0.0119
     13 C           9.7942    1.2500    0.0000 C.3     1  UNL1       -0.0296
     14 C           4.5981    0.2500    0.0000 C.2     1  UNL1        0.1647
     15 C          10.6603    1.7500    0.0000 C.3     1  UNL1       -0.0629
     16 C           3.7320   -0.2500    0.0000 C.ar    1  UNL1        0.0174
     17 C           2.8660    0.2500    0.0000 C.ar    1  UNL1       -0.0513
     18 C           3.7320   -1.2500    0.0000 C.ar    1  UNL1       -0.0513
     19 C           2.0000   -0.2500    0.0000 C.ar    1  UNL1       -0.0611
     20 C           2.8660   -1.7500    0.0000 C.ar    1  UNL1       -0.0611
     21 C           2.0000   -1.2500    0.0000 C.ar    1  UNL1       -0.0617
     22 H           8.0622   -0.3700    0.0000 H       1  UNL1        0.0507
     23 H           6.3301   -0.3700    0.0000 H       1  UNL1        0.0470
     24 H           8.5297   -0.7249    0.0000 H       1  UNL1        0.0308
     25 H           9.3267   -0.7249    0.0000 H       1  UNL1        0.0308
     26 H           6.1181    1.8326    0.0000 H       1  UNL1        0.0323
     27 H           5.7196    1.1423    0.0000 H       1  UNL1        0.0323
     28 H           5.0656   -0.7249    0.0000 H       1  UNL1        0.0360
     29 H           5.8626   -0.7249    0.0000 H       1  UNL1        0.0360
     30 H           8.5991    1.5600    0.0000 H       1  UNL1        0.0584
     31 H           9.7942   -0.6000    0.0000 H       1  UNL1        0.0594
     32 H           7.1962    2.3700    0.0000 H       1  UNL1        0.0570
     33 H           6.5762   -1.2500    0.0000 H       1  UNL1        0.0391
     34 H           7.1962   -1.8700    0.0000 H       1  UNL1        0.0391
     35 H           7.8162   -1.2500    0.0000 H       1  UNL1        0.0391
     36 H           9.5822    1.8326    0.0000 H       1  UNL1        0.0287
     37 H           9.1836    1.1423    0.0000 H       1  UNL1        0.0287
     38 H          10.9703    1.2131    0.0000 H       1  UNL1        0.0231
     39 H          11.1972    2.0600    0.0000 H       1  UNL1        0.0231
     40 H          10.3503    2.2869    0.0000 H       1  UNL1        0.0231
     41 H          11.1972    0.0600    0.0000 H       1  UNL1        0.2098
     42 H           2.8660    0.8700    0.0000 H       1  UNL1        0.0624
     43 H           4.2690   -1.5600    0.0000 H       1  UNL1        0.0624
     44 H           1.4631    0.0600    0.0000 H       1  UNL1        0.0618
     45 H           2.8660   -2.3700    0.0000 H       1  UNL1        0.0618
     46 H           1.4631   -1.5600    0.0000 H       1  UNL1        0.0618
@<TRIPOS>BOND
     1     1    10    1
     2     1    41    1
     3     2    14    2
     4     3     4    1
     5     3     5    1
     6     3    12    1
     7     4     6    1
     8     4     9    1
     9     4    22    1
    10     5     7    1
    11     5     8    1
    12     5    23    1
    13     6    10    1
    14     6    24    1
    15     6    25    1
    16     7    11    1
    17     7    26    1
    18     7    27    1
    19     8    14    1
    20     8    28    1
    21     8    29    1
    22     9    11    2
    23     9    30    1
    24    10    13    1
    25    10    31    1
    26    11    32    1
    27    12    33    1
    28    12    34    1
    29    12    35    1
    30    13    15    1
    31    13    36    1
    32    13    37    1
    33    14    16    1
    34    15    38    1
    35    15    39    1
    36    15    40    1
    37    16    17   ar
    38    16    18   ar
    39    17    19   ar
    40    17    42    1
    41    18    20   ar
    42    18    43    1
    43    19    21   ar
    44    19    44    1
    45    20    21   ar
    46    20    45    1
    47    21    46    1
