@<TRIPOS>MOLECULE
IMPHY003033
 50 53 0 0 0
SMALL
GASTEIGER

@<TRIPOS>ATOM
      1 O           7.2506   -1.7654    0.0000 O.3     1  UNL1       -0.4830
      2 O          11.6609   -1.4607    0.0000 O.3     1  UNL1       -0.4526
      3 O          11.6609   -3.0701    0.0000 O.3     1  UNL1       -0.4526
      4 O           7.2506    1.2346    0.0000 O.2     1  UNL1       -0.2918
      5 O           3.7205    0.2587    0.0000 O.3     1  UNL1       -0.4843
      6 O           3.7205   -1.7896    0.0000 O.3     1  UNL1       -0.4913
      7 C           8.1166   -1.2654    0.0000 C.3     1  UNL1        0.1323
      8 C           8.1166   -0.2654    0.0000 C.3     1  UNL1        0.0519
      9 C           8.9826   -1.7654    0.0000 C.ar    1  UNL1       -0.0033
     10 C           6.3846   -0.2654    0.0000 C.ar    1  UNL1        0.0628
     11 C           7.2506    0.2346    0.0000 C.2     1  UNL1        0.1706
     12 C           6.3846   -1.2654    0.0000 C.ar    1  UNL1        0.1356
     13 C           9.8487   -1.2654    0.0000 C.ar    1  UNL1       -0.0095
     14 C           8.9826   -2.7654    0.0000 C.ar    1  UNL1       -0.0514
     15 C           5.4906    0.2693    0.0000 C.ar    1  UNL1       -0.0023
     16 C           5.4906   -1.8001    0.0000 C.ar    1  UNL1        0.0261
     17 C          10.7147   -1.7654    0.0000 C.ar    1  UNL1        0.1666
     18 C          10.7147   -2.7654    0.0000 C.ar    1  UNL1        0.1662
     19 C           4.5846   -0.2446    0.0000 C.ar    1  UNL1        0.1632
     20 C           4.5846   -1.2862    0.0000 C.ar    1  UNL1        0.1650
     21 C           9.8487   -3.2654    0.0000 C.ar    1  UNL1       -0.0158
     22 C          12.2445   -2.2654    0.0000 C.3     1  UNL1        0.2332
     23 C           3.7243    1.2587    0.0000 C.3     1  UNL1        0.1082
     24 C           2.8602    1.7621    0.0000 C.2     1  UNL1       -0.0484
     25 C           3.7243   -2.7895    0.0000 C.3     1  UNL1        0.0790
     26 C           2.8641    2.7621    0.0000 C.2     1  UNL1       -0.0765
     27 C           2.0000    3.2654    0.0000 C.3     1  UNL1       -0.0439
     28 C           3.7320    3.2587    0.0000 C.3     1  UNL1       -0.0439
     29 H           8.6536   -0.9554    0.0000 H       1  UNL1        0.0789
     30 H           8.7272   -0.3731    0.0000 H       1  UNL1        0.0385
     31 H           8.3287    0.3172    0.0000 H       1  UNL1        0.0385
     32 H           9.8487   -0.6454    0.0000 H       1  UNL1        0.0659
     33 H           8.4457   -3.0754    0.0000 H       1  UNL1        0.0623
     34 H           5.4978    0.8892    0.0000 H       1  UNL1        0.0663
     35 H           5.4978   -2.4200    0.0000 H       1  UNL1        0.0692
     36 H           9.8487   -3.8854    0.0000 H       1  UNL1        0.0655
     37 H          12.7054   -2.6801    0.0000 H       1  UNL1        0.1166
     38 H          12.7054   -1.8507    0.0000 H       1  UNL1        0.1166
     39 H           4.3345    1.1487    0.0000 H       1  UNL1        0.0742
     40 H           3.9386    1.8405    0.0000 H       1  UNL1        0.0742
     41 H           2.3221    1.4542    0.0000 H       1  UNL1        0.0605
     42 H           3.1043   -2.7919    0.0000 H       1  UNL1        0.0660
     43 H           3.7267   -3.4095    0.0000 H       1  UNL1        0.0660
     44 H           4.3443   -2.7872    0.0000 H       1  UNL1        0.0660
     45 H           2.3121    3.8011    0.0000 H       1  UNL1        0.0274
     46 H           1.4643    3.5775    0.0000 H       1  UNL1        0.0274
     47 H           1.6879    2.7297    0.0000 H       1  UNL1        0.0274
     48 H           4.0400    2.7206    0.0000 H       1  UNL1        0.0274
     49 H           4.2702    3.5666    0.0000 H       1  UNL1        0.0274
     50 H           3.4241    3.7968    0.0000 H       1  UNL1        0.0274
@<TRIPOS>BOND
     1     1     7    1
     2     1    12    1
     3     2    17    1
     4     2    22    1
     5     3    18    1
     6     3    22    1
     7     4    11    2
     8     5    19    1
     9     5    23    1
    10     6    20    1
    11     6    25    1
    12     7     8    1
    13     7     9    1
    14     7    29    1
    15     8    11    1
    16     8    30    1
    17     8    31    1
    18     9    13   ar
    19     9    14   ar
    20    10    11    1
    21    10    12   ar
    22    10    15   ar
    23    12    16   ar
    24    13    17   ar
    25    13    32    1
    26    14    21   ar
    27    14    33    1
    28    15    19   ar
    29    15    34    1
    30    16    20   ar
    31    16    35    1
    32    17    18   ar
    33    18    21   ar
    34    19    20   ar
    35    21    36    1
    36    22    37    1
    37    22    38    1
    38    23    24    1
    39    23    39    1
    40    23    40    1
    41    24    26    2
    42    24    41    1
    43    25    42    1
    44    25    43    1
    45    25    44    1
    46    26    27    1
    47    26    28    1
    48    27    45    1
    49    27    46    1
    50    27    47    1
    51    28    48    1
    52    28    49    1
    53    28    50    1
