@<TRIPOS>MOLECULE
IMPHY001105
 42 43 0 0 0
SMALL
GASTEIGER

@<TRIPOS>ATOM
      1 O           5.4641   -0.8450    0.0000 O.3     1  UNL1       -0.3327
      2 O           3.7320   -2.8450    0.0000 O.3     1  UNL1       -0.4562
      3 O           5.4641   -3.8450    0.0000 O.3     1  UNL1       -0.3852
      4 O           7.1962   -0.8450    0.0000 O.3     1  UNL1       -0.4608
      5 O           7.1962   -2.8450    0.0000 O.3     1  UNL1       -0.3829
      6 O           2.8660   -1.3450    0.0000 O.2     1  UNL1       -0.2512
      7 N           8.9282    4.1550    0.0000 N.1     1  UNL1       -0.1962
      8 C           4.5981   -2.3450    0.0000 C.3     1  UNL1        0.1571
      9 C           5.4641   -2.8450    0.0000 C.3     1  UNL1        0.1261
     10 C           6.3301   -2.3450    0.0000 C.3     1  UNL1        0.1465
     11 C           4.5981   -1.3450    0.0000 C.3     1  UNL1        0.0994
     12 C           6.3301   -1.3450    0.0000 C.3     1  UNL1        0.2308
     13 C           3.7320   -0.8450    0.0000 C.3     1  UNL1       -0.0350
     14 C           7.1962    0.1550    0.0000 C.ar    1  UNL1        0.1240
     15 C           2.8660   -2.3450    0.0000 C.2     1  UNL1        0.3044
     16 C           8.0622    0.6550    0.0000 C.ar    1  UNL1       -0.0195
     17 C           6.3301    0.6550    0.0000 C.ar    1  UNL1       -0.0195
     18 C           2.0000   -2.8450    0.0000 C.3     1  UNL1        0.0332
     19 C           8.0622    1.6550    0.0000 C.ar    1  UNL1       -0.0542
     20 C           6.3301    1.6550    0.0000 C.ar    1  UNL1       -0.0542
     21 C           7.1962    2.1550    0.0000 C.ar    1  UNL1       -0.0334
     22 C           7.1962    3.1550    0.0000 C.3     1  UNL1        0.0598
     23 C           8.0622    3.6550    0.0000 C.1     1  UNL1        0.0672
     24 H           4.5981   -2.9650    0.0000 H       1  UNL1        0.0787
     25 H           6.0010   -3.1550    0.0000 H       1  UNL1        0.0659
     26 H           6.8671   -2.0350    0.0000 H       1  UNL1        0.0683
     27 H           4.5981   -0.7250    0.0000 H       1  UNL1        0.0632
     28 H           6.3301   -0.7250    0.0000 H       1  UNL1        0.1084
     29 H           4.0420   -0.3081    0.0000 H       1  UNL1        0.0256
     30 H           3.1951   -0.5350    0.0000 H       1  UNL1        0.0256
     31 H           3.4220   -1.3819    0.0000 H       1  UNL1        0.0256
     32 H           6.0010   -4.1550    0.0000 H       1  UNL1        0.2101
     33 H           7.7331   -2.5350    0.0000 H       1  UNL1        0.2102
     34 H           8.5991    0.3450    0.0000 H       1  UNL1        0.0654
     35 H           5.7932    0.3450    0.0000 H       1  UNL1        0.0654
     36 H           1.6900   -2.3081    0.0000 H       1  UNL1        0.0342
     37 H           1.4631   -3.1550    0.0000 H       1  UNL1        0.0342
     38 H           2.3100   -3.3819    0.0000 H       1  UNL1        0.0342
     39 H           8.5991    1.9650    0.0000 H       1  UNL1        0.0622
     40 H           5.7932    1.9650    0.0000 H       1  UNL1        0.0622
     41 H           6.9841    3.7376    0.0000 H       1  UNL1        0.0467
     42 H           6.5856    3.0473    0.0000 H       1  UNL1        0.0467
@<TRIPOS>BOND
     1     1    11    1
     2     1    12    1
     3     8     2    1
     4     2    15    1
     5     9     3    1
     6     3    32    1
     7    12     4    1
     8     4    14    1
     9    10     5    1
    10     5    33    1
    11     6    15    2
    12     7    23    3
    13     8     9    1
    14     8    11    1
    15     8    24    1
    16     9    10    1
    17     9    25    1
    18    10    12    1
    19    10    26    1
    20    11    13    1
    21    11    27    1
    22    12    28    1
    23    13    29    1
    24    13    30    1
    25    13    31    1
    26    14    16   ar
    27    14    17   ar
    28    15    18    1
    29    16    19   ar
    30    16    34    1
    31    17    20   ar
    32    17    35    1
    33    18    36    1
    34    18    37    1
    35    18    38    1
    36    19    21   ar
    37    19    39    1
    38    20    21   ar
    39    20    40    1
    40    21    22    1
    41    22    23    1
    42    22    41    1
    43    22    42    1
