@<TRIPOS>MOLECULE
IMPHY012825
 61 60 0 0 0
SMALL
GASTEIGER

@<TRIPOS>ATOM
      1 O           2.8660    0.4400    0.0000 O.3     1  UNL1       -0.4679
      2 O           3.7320   -1.0600    0.0000 O.2     1  UNL1       -0.2509
      3 C           8.0622    0.4400    0.0000 C.3     1  UNL1       -0.0531
      4 C           8.9282   -0.0600    0.0000 C.3     1  UNL1       -0.0530
      5 C           7.1962   -0.0600    0.0000 C.3     1  UNL1       -0.0530
      6 C           9.7942    0.4400    0.0000 C.3     1  UNL1       -0.0528
      7 C           6.3301    0.4400    0.0000 C.3     1  UNL1       -0.0526
      8 C          10.6603   -0.0600    0.0000 C.3     1  UNL1       -0.0496
      9 C           5.4641   -0.0600    0.0000 C.3     1  UNL1       -0.0430
     10 C          11.5263    0.4400    0.0000 C.3     1  UNL1       -0.0345
     11 C           4.5981    0.4400    0.0000 C.3     1  UNL1        0.0449
     12 C          17.5885   -0.0600    0.0000 C.3     1  UNL1       -0.0528
     13 C          16.7224    0.4400    0.0000 C.3     1  UNL1       -0.0496
     14 C          18.4545    0.4400    0.0000 C.3     1  UNL1       -0.0533
     15 C          15.8564   -0.0600    0.0000 C.3     1  UNL1       -0.0345
     16 C          12.3923   -0.0600    0.0000 C.2     1  UNL1       -0.0840
     17 C          19.3205   -0.0600    0.0000 C.3     1  UNL1       -0.0559
     18 C           3.7320   -0.0600    0.0000 C.2     1  UNL1        0.3068
     19 C          14.9904    0.4400    0.0000 C.2     1  UNL1       -0.0840
     20 C          13.2583    0.4400    0.0000 C.2     1  UNL1       -0.0660
     21 C          20.1865    0.4400    0.0000 C.3     1  UNL1       -0.0653
     22 C          14.1244   -0.0600    0.0000 C.2     1  UNL1       -0.0660
     23 C           2.0000   -0.0600    0.0000 C.3     1  UNL1        0.0817
     24 H           8.4607    0.9149    0.0000 H       1  UNL1        0.0265
     25 H           7.6636    0.9149    0.0000 H       1  UNL1        0.0265
     26 H           8.5297   -0.5349    0.0000 H       1  UNL1        0.0265
     27 H           9.3267   -0.5349    0.0000 H       1  UNL1        0.0265
     28 H           6.7976   -0.5349    0.0000 H       1  UNL1        0.0265
     29 H           7.5947   -0.5349    0.0000 H       1  UNL1        0.0265
     30 H          10.1928    0.9149    0.0000 H       1  UNL1        0.0265
     31 H           9.3957    0.9149    0.0000 H       1  UNL1        0.0265
     32 H           6.7287    0.9149    0.0000 H       1  UNL1        0.0265
     33 H           5.9316    0.9149    0.0000 H       1  UNL1        0.0265
     34 H          10.2617   -0.5349    0.0000 H       1  UNL1        0.0268
     35 H          11.0588   -0.5349    0.0000 H       1  UNL1        0.0268
     36 H           5.0656   -0.5349    0.0000 H       1  UNL1        0.0270
     37 H           5.8626   -0.5349    0.0000 H       1  UNL1        0.0270
     38 H          11.9248    0.9149    0.0000 H       1  UNL1        0.0307
     39 H          11.1278    0.9149    0.0000 H       1  UNL1        0.0307
     40 H           4.9966    0.9149    0.0000 H       1  UNL1        0.0377
     41 H           4.1996    0.9149    0.0000 H       1  UNL1        0.0377
     42 H          17.1899   -0.5349    0.0000 H       1  UNL1        0.0265
     43 H          17.9870   -0.5349    0.0000 H       1  UNL1        0.0265
     44 H          17.1210    0.9149    0.0000 H       1  UNL1        0.0268
     45 H          16.3239    0.9149    0.0000 H       1  UNL1        0.0268
     46 H          18.8530    0.9149    0.0000 H       1  UNL1        0.0265
     47 H          18.0560    0.9149    0.0000 H       1  UNL1        0.0265
     48 H          15.4579   -0.5349    0.0000 H       1  UNL1        0.0307
     49 H          16.2549   -0.5349    0.0000 H       1  UNL1        0.0307
     50 H          12.3923   -0.6800    0.0000 H       1  UNL1        0.0572
     51 H          18.9220   -0.5349    0.0000 H       1  UNL1        0.0263
     52 H          19.7190   -0.5349    0.0000 H       1  UNL1        0.0263
     53 H          14.9904    1.0600    0.0000 H       1  UNL1        0.0572
     54 H          13.2583    1.0600    0.0000 H       1  UNL1        0.0614
     55 H          20.4965   -0.0969    0.0000 H       1  UNL1        0.0230
     56 H          20.7235    0.7500    0.0000 H       1  UNL1        0.0230
     57 H          19.8765    0.9769    0.0000 H       1  UNL1        0.0230
     58 H          14.1244   -0.6800    0.0000 H       1  UNL1        0.0614
     59 H           1.6900    0.4769    0.0000 H       1  UNL1        0.0661
     60 H           1.4631   -0.3700    0.0000 H       1  UNL1        0.0661
     61 H           2.3100   -0.5969    0.0000 H       1  UNL1        0.0661
@<TRIPOS>BOND
     1     1    18    1
     2     1    23    1
     3     2    18    2
     4     3     4    1
     5     3     5    1
     6     3    24    1
     7     3    25    1
     8     4     6    1
     9     4    26    1
    10     4    27    1
    11     5     7    1
    12     5    28    1
    13     5    29    1
    14     6     8    1
    15     6    30    1
    16     6    31    1
    17     7     9    1
    18     7    32    1
    19     7    33    1
    20     8    10    1
    21     8    34    1
    22     8    35    1
    23     9    11    1
    24     9    36    1
    25     9    37    1
    26    10    16    1
    27    10    38    1
    28    10    39    1
    29    11    18    1
    30    11    40    1
    31    11    41    1
    32    12    13    1
    33    12    14    1
    34    12    42    1
    35    12    43    1
    36    13    15    1
    37    13    44    1
    38    13    45    1
    39    14    17    1
    40    14    46    1
    41    14    47    1
    42    15    19    1
    43    15    48    1
    44    15    49    1
    45    16    20    2
    46    16    50    1
    47    17    21    1
    48    17    51    1
    49    17    52    1
    50    19    22    2
    51    19    53    1
    52    20    22    1
    53    20    54    1
    54    21    55    1
    55    21    56    1
    56    21    57    1
    57    22    58    1
    58    23    59    1
    59    23    60    1
    60    23    61    1
