@<TRIPOS>MOLECULE
IMPHY010286
 25 24 0 0 0
SMALL
GASTEIGER

@<TRIPOS>ATOM
      1 O           6.0010    1.2500    0.0000 O.3     1  UNL1       -0.3865
      2 O           5.1350   -1.2500    0.0000 O.3     1  UNL1       -0.3860
      3 O           6.8671   -1.2500    0.0000 O.3     1  UNL1       -0.3869
      4 O           4.2690    1.2500    0.0000 O.3     1  UNL1       -0.3783
      5 O           8.5991   -0.2500    0.0000 O.3     1  UNL1       -0.3924
      6 O           2.5369    0.2500    0.0000 O.3     1  UNL1       -0.4788
      7 O           3.4030   -1.2500    0.0000 O.2     1  UNL1       -0.2480
      8 C           6.0010    0.2500    0.0000 C.3     1  UNL1        0.1119
      9 C           5.1350   -0.2500    0.0000 C.3     1  UNL1        0.1197
     10 C           6.8671   -0.2500    0.0000 C.3     1  UNL1        0.1065
     11 C           4.2690    0.2500    0.0000 C.3     1  UNL1        0.1798
     12 C           7.7331    0.2500    0.0000 C.3     1  UNL1        0.0727
     13 C           3.4030   -0.2500    0.0000 C.2     1  UNL1        0.3363
     14 H           6.5380    0.5600    0.0000 H       1  UNL1        0.0647
     15 H           5.6720   -0.5600    0.0000 H       1  UNL1        0.0652
     16 H           6.3301   -0.5600    0.0000 H       1  UNL1        0.0643
     17 H           4.8059    0.5600    0.0000 H       1  UNL1        0.0738
     18 H           8.1316    0.7249    0.0000 H       1  UNL1        0.0584
     19 H           7.3346    0.7249    0.0000 H       1  UNL1        0.0584
     20 H           6.5380    1.5600    0.0000 H       1  UNL1        0.2100
     21 H           4.5981   -1.5600    0.0000 H       1  UNL1        0.2100
     22 H           7.4040   -1.5600    0.0000 H       1  UNL1        0.2100
     23 H           3.7320    1.5600    0.0000 H       1  UNL1        0.2106
     24 H           9.1360    0.0600    0.0000 H       1  UNL1        0.2095
     25 H           2.0000   -0.0600    0.0000 H       1  UNL1        0.2951
@<TRIPOS>BOND
     1     8     1    1
     2     1    20    1
     3     9     2    1
     4     2    21    1
     5    10     3    1
     6     3    22    1
     7    11     4    1
     8     4    23    1
     9     5    12    1
    10     5    24    1
    11     6    13    1
    12     6    25    1
    13     7    13    2
    14     8     9    1
    15     8    10    1
    16     8    14    1
    17     9    11    1
    18     9    15    1
    19    10    12    1
    20    10    16    1
    21    11    13    1
    22    11    17    1
    23    12    18    1
    24    12    19    1
