@<TRIPOS>MOLECULE
IMPHY008754
 72 76 0 0 0
SMALL
GASTEIGER

@<TRIPOS>ATOM
      1 O           7.8366   -2.9107    0.0000 O.3     1  UNL1       -0.3837
      2 O           2.5381   -3.9417    0.0000 O.3     1  UNL1       -0.3918
      3 O          13.0525    3.8291    0.0000 O.3     1  UNL1       -0.3947
      4 C           6.0682   -1.9176    0.0000 C.3     1  UNL1        0.0009
      5 C           5.2022   -2.4176    0.0000 C.3     1  UNL1       -0.0157
      6 C           5.2020   -1.4171    0.0000 C.3     1  UNL1       -0.0363
      7 C           5.2022   -3.4176    0.0000 C.3     1  UNL1       -0.0288
      8 C           6.9343   -2.4176    0.0000 C.2     1  UNL1       -0.0351
      9 C           6.0522   -0.8761    0.0000 C.3     1  UNL1       -0.0424
     10 C           7.8443   -1.9107    0.0000 C.3     1  UNL1        0.0934
     11 C           4.3083   -1.8829    0.0000 C.3     1  UNL1       -0.0439
     12 C           7.8523   -0.8691    0.0000 C.3     1  UNL1        0.0071
     13 C           6.9502   -0.3483    0.0000 C.3     1  UNL1       -0.0433
     14 C           6.0682   -3.9176    0.0000 C.3     1  UNL1       -0.0309
     15 C           4.3083   -3.9522    0.0000 C.3     1  UNL1       -0.0232
     16 C           6.9343   -3.4176    0.0000 C.2     1  UNL1       -0.0812
     17 C           8.8403   -0.5593    0.0000 C.3     1  UNL1       -0.0117
     18 C           3.4022   -2.3968    0.0000 C.3     1  UNL1       -0.0263
     19 C           8.8274   -2.2358    0.0000 C.3     1  UNL1       -0.0190
     20 C           3.4022   -3.4384    0.0000 C.3     1  UNL1        0.0556
     21 C           9.4418   -1.4022    0.0000 C.3     1  UNL1       -0.0430
     22 C           7.8600    0.1308    0.0000 C.3     1  UNL1       -0.0561
     23 C           9.1583    0.3888    0.0000 C.2     1  UNL1       -0.0729
     24 C          10.1384    0.5874    0.0000 C.3     1  UNL1       -0.0317
     25 C           8.4962    1.1382    0.0000 C.2     1  UNL1       -0.0992
     26 C          10.4564    1.5355    0.0000 C.3     1  UNL1       -0.0491
     27 C          11.4364    1.7342    0.0000 C.3     1  UNL1       -0.0481
     28 C          11.7544    2.6823    0.0000 C.3     1  UNL1       -0.0206
     29 C          12.7345    2.8810    0.0000 C.3     1  UNL1        0.0468
     30 C          11.0923    3.4317    0.0000 C.3     1  UNL1       -0.0603
     31 H           5.4141   -0.8345    0.0000 H       1  UNL1        0.0280
     32 H           4.5914   -1.3095    0.0000 H       1  UNL1        0.0280
     33 H           5.2088   -4.2676    0.0000 H       1  UNL1        0.0310
     34 H           5.8342   -0.2957    0.0000 H       1  UNL1        0.0274
     35 H           5.4431   -0.9916    0.0000 H       1  UNL1        0.0274
     36 H           4.7129   -1.4131    0.0000 H       1  UNL1        0.0272
     37 H           3.9147   -1.4039    0.0000 H       1  UNL1        0.0272
     38 H           7.3475    0.1276    0.0000 H       1  UNL1        0.0272
     39 H           6.5493    0.1246    0.0000 H       1  UNL1        0.0272
     40 H           5.6697   -4.3925    0.0000 H       1  UNL1        0.0310
     41 H           6.4668   -4.3925    0.0000 H       1  UNL1        0.0310
     42 H           3.9147   -4.4313    0.0000 H       1  UNL1        0.0293
     43 H           4.7129   -4.4220    0.0000 H       1  UNL1        0.0293
     44 H           7.4712   -3.7276    0.0000 H       1  UNL1        0.0573
     45 H           8.4063   -0.1166    0.0000 H       1  UNL1        0.0352
     46 H           3.1932   -1.8131    0.0000 H       1  UNL1        0.0290
     47 H           2.7914   -2.5029    0.0000 H       1  UNL1        0.0290
     48 H           8.5720   -2.8007    0.0000 H       1  UNL1        0.0296
     49 H           9.3624   -2.5491    0.0000 H       1  UNL1        0.0296
     50 H           3.4058   -4.0584    0.0000 H       1  UNL1        0.0593
     51 H           9.8994   -1.8205    0.0000 H       1  UNL1        0.0272
     52 H           9.9058   -0.9911    0.0000 H       1  UNL1        0.0272
     53 H           8.4800    0.1261    0.0000 H       1  UNL1        0.0236
     54 H           7.8648    0.7508    0.0000 H       1  UNL1        0.0236
     55 H           7.2400    0.1356    0.0000 H       1  UNL1        0.0236
     56 H           8.3711   -3.2248    0.0000 H       1  UNL1        0.2106
     57 H           2.0000   -3.6338    0.0000 H       1  UNL1        0.2098
     58 H          10.1542   -0.0324    0.0000 H       1  UNL1        0.0310
     59 H          10.7515    0.4954    0.0000 H       1  UNL1        0.0310
     60 H           8.6934    1.7260    0.0000 H       1  UNL1        0.0534
     61 H           7.8886    1.0150    0.0000 H       1  UNL1        0.0534
     62 H          10.4406    2.1553    0.0000 H       1  UNL1        0.0268
     63 H           9.8432    1.6276    0.0000 H       1  UNL1        0.0268
     64 H          11.4522    1.1144    0.0000 H       1  UNL1        0.0269
     65 H          12.0496    1.6421    0.0000 H       1  UNL1        0.0269
     66 H          11.9516    3.2701    0.0000 H       1  UNL1        0.0320
     67 H          12.7503    2.2612    0.0000 H       1  UNL1        0.0560
     68 H          13.3476    2.7889    0.0000 H       1  UNL1        0.0560
     69 H          11.5570    3.8422    0.0000 H       1  UNL1        0.0233
     70 H          10.6818    3.8964    0.0000 H       1  UNL1        0.0233
     71 H          10.6277    3.0212    0.0000 H       1  UNL1        0.0233
     72 H          13.6601    3.9522    0.0000 H       1  UNL1        0.2094
@<TRIPOS>BOND
     1    10     1    1
     2     1    56    1
     3    20     2    1
     4     2    57    1
     5     3    29    1
     6     3    72    1
     7     4     5    1
     8     4     6    1
     9     4     8    1
    10     4     9    1
    11     5     6    1
    12     5     7    1
    13     5    11    1
    14     6    31    1
    15     6    32    1
    16     7    14    1
    17     7    15    1
    18     7    33    1
    19     8    10    1
    20     8    16    2
    21     9    13    1
    22     9    34    1
    23     9    35    1
    24    10    12    1
    25    10    19    1
    26    11    18    1
    27    11    36    1
    28    11    37    1
    29    12    13    1
    30    12    17    1
    31    12    22    1
    32    13    38    1
    33    13    39    1
    34    14    16    1
    35    14    40    1
    36    14    41    1
    37    15    20    1
    38    15    42    1
    39    15    43    1
    40    16    44    1
    41    17    21    1
    42    17    23    1
    43    17    45    1
    44    18    20    1
    45    18    46    1
    46    18    47    1
    47    19    21    1
    48    19    48    1
    49    19    49    1
    50    20    50    1
    51    21    51    1
    52    21    52    1
    53    22    53    1
    54    22    54    1
    55    22    55    1
    56    23    24    1
    57    23    25    2
    58    24    26    1
    59    24    58    1
    60    24    59    1
    61    25    60    1
    62    25    61    1
    63    26    27    1
    64    26    62    1
    65    26    63    1
    66    27    28    1
    67    27    64    1
    68    27    65    1
    69    28    29    1
    70    28    30    1
    71    28    66    1
    72    29    67    1
    73    29    68    1
    74    30    69    1
    75    30    70    1
    76    30    71    1
