@<TRIPOS>MOLECULE
IMPHY005985
 32 33 0 0 0
SMALL
GASTEIGER

@<TRIPOS>ATOM
      1 O           4.2690    0.8100    0.0000 O.3     1  UNL1       -0.4191
      2 O           2.5369   -0.1900    0.0000 O.3     1  UNL1       -0.5033
      3 O           6.0010   -0.1900    0.0000 O.co2   1  UNL1       -0.8712
      4 O           6.0010    0.8100    0.0000 O.2     1  UNL1       -0.2443
      5 O           3.4030   -3.6900    0.0000 O.3     1  UNL1       -0.4771
      6 O           5.1350   -3.6900    0.0000 O.2     1  UNL1       -0.2451
      7 N           4.2690    3.8100    0.0000 N.ar    1  UNL1       -0.2057
      8 C           5.1350    2.3100    0.0000 C.ar    1  UNL1        0.1228
      9 C           4.2690   -0.1900    0.0000 C.ar    1  UNL1        0.1655
     10 C           4.2690    2.8100    0.0000 C.ar    1  UNL1        0.1850
     11 C           3.4030   -0.6900    0.0000 C.ar    1  UNL1        0.1594
     12 C           6.0010    2.8100    0.0000 C.ar    1  UNL1       -0.0364
     13 C           4.2690   -2.1900    0.0000 C.ar    1  UNL1        0.0619
     14 C           5.1350    4.3100    0.0000 C.ar    1  UNL1        0.1710
     15 C           5.1350   -0.6900    0.0000 C.ar    1  UNL1       -0.0602
     16 C           5.1350    1.3100    0.0000 C.2     1  UNL1        0.3503
     17 C           3.4030   -1.6900    0.0000 C.ar    1  UNL1       -0.0026
     18 C           5.1350   -1.6900    0.0000 C.ar    1  UNL1       -0.0518
     19 C           6.0010    3.8100    0.0000 C.ar    1  UNL1        0.0029
     20 C           3.4030    4.3100    0.0000 C.3     1  UNL1        0.1404
     21 C           4.2690   -3.1900    0.0000 C.2     1  UNL1        0.3369
     22 H           3.7320    2.5000    0.0000 H       1  UNL1        0.1385
     23 H           6.5380    2.5000    0.0000 H       1  UNL1        0.0629
     24 H           5.1350    4.9300    0.0000 H       1  UNL1        0.1376
     25 H           2.8660   -2.0000    0.0000 H       1  UNL1        0.0663
     26 H           5.6720   -2.0000    0.0000 H       1  UNL1        0.0621
     27 H           6.5380    4.1200    0.0000 H       1  UNL1        0.0677
     28 H           3.7130    4.8469    0.0000 H       1  UNL1        0.0993
     29 H           2.8660    4.6200    0.0000 H       1  UNL1        0.0993
     30 H           3.0930    3.7731    0.0000 H       1  UNL1        0.0993
     31 H           2.0000   -0.5000    0.0000 H       1  UNL1        0.2923
     32 H           3.4030   -4.3100    0.0000 H       1  UNL1        0.2954
@<TRIPOS>UNITY_ATOM_ATTR
3 1
charge -1
7 1
charge 1
@<TRIPOS>BOND
     1     1     9    1
     2     1    16    1
     3     2    11    1
     4     2    31    1
     5     3    15    1
     6     4    16    2
     7     5    21    1
     8     5    32    1
     9     6    21    2
    10     7    10   ar
    11     7    14   ar
    12     7    20    1
    13     8    10   ar
    14     8    12   ar
    15     8    16    1
    16     9    11   ar
    17     9    15   ar
    18    10    22    1
    19    11    17   ar
    20    12    19   ar
    21    12    23    1
    22    13    17   ar
    23    13    18   ar
    24    13    21    1
    25    14    19   ar
    26    14    24    1
    27    15    18   ar
    28    17    25    1
    29    18    26    1
    30    19    27    1
    31    20    28    1
    32    20    29    1
    33    20    30    1
