@<TRIPOS>MOLECULE
IMPHY012153
 41 40 0 0 0
SMALL
GASTEIGER

@<TRIPOS>ATOM
      1 O           3.7320    0.7500    0.0000 O.3     1  UNL1       -0.4648
      2 O           2.8660   -0.7500    0.0000 O.2     1  UNL1       -0.2512
      3 C           8.9282    0.7500    0.0000 C.3     1  UNL1       -0.0531
      4 C           8.0622    0.2500    0.0000 C.3     1  UNL1       -0.0531
      5 C           9.7942    0.2500    0.0000 C.3     1  UNL1       -0.0531
      6 C           7.1962    0.7500    0.0000 C.3     1  UNL1       -0.0530
      7 C          10.6603    0.7500    0.0000 C.3     1  UNL1       -0.0531
      8 C           6.3301    0.2500    0.0000 C.3     1  UNL1       -0.0500
      9 C          11.5263    0.2500    0.0000 C.3     1  UNL1       -0.0533
     10 C           5.4641    0.7500    0.0000 C.3     1  UNL1       -0.0185
     11 C          12.3923    0.7500    0.0000 C.3     1  UNL1       -0.0559
     12 C           4.5981    0.2500    0.0000 C.3     1  UNL1        0.0924
     13 C          13.2583    0.2500    0.0000 C.3     1  UNL1       -0.0653
     14 C           2.8660    0.2500    0.0000 C.2     1  UNL1        0.3039
     15 C           2.0000    0.7500    0.0000 C.3     1  UNL1        0.0332
     16 H           9.3267    1.2250    0.0000 H       1  UNL1        0.0265
     17 H           8.5297    1.2250    0.0000 H       1  UNL1        0.0265
     18 H           7.6636   -0.2249    0.0000 H       1  UNL1        0.0265
     19 H           8.4607   -0.2249    0.0000 H       1  UNL1        0.0265
     20 H           9.3957   -0.2249    0.0000 H       1  UNL1        0.0265
     21 H          10.1928   -0.2249    0.0000 H       1  UNL1        0.0265
     22 H           7.5947    1.2250    0.0000 H       1  UNL1        0.0265
     23 H           6.7976    1.2250    0.0000 H       1  UNL1        0.0265
     24 H          11.0588    1.2250    0.0000 H       1  UNL1        0.0265
     25 H          10.2617    1.2250    0.0000 H       1  UNL1        0.0265
     26 H           5.9316   -0.2249    0.0000 H       1  UNL1        0.0266
     27 H           6.7287   -0.2249    0.0000 H       1  UNL1        0.0266
     28 H          11.1278   -0.2249    0.0000 H       1  UNL1        0.0265
     29 H          11.9248   -0.2249    0.0000 H       1  UNL1        0.0265
     30 H           5.8626    1.2250    0.0000 H       1  UNL1        0.0298
     31 H           5.0656    1.2250    0.0000 H       1  UNL1        0.0298
     32 H          12.7908    1.2250    0.0000 H       1  UNL1        0.0263
     33 H          11.9938    1.2250    0.0000 H       1  UNL1        0.0263
     34 H           4.1996   -0.2249    0.0000 H       1  UNL1        0.0697
     35 H           4.9966   -0.2249    0.0000 H       1  UNL1        0.0697
     36 H          12.9483   -0.2869    0.0000 H       1  UNL1        0.0230
     37 H          13.7953   -0.0600    0.0000 H       1  UNL1        0.0230
     38 H          13.5683    0.7869    0.0000 H       1  UNL1        0.0230
     39 H           2.3100    1.2869    0.0000 H       1  UNL1        0.0342
     40 H           1.4631    1.0600    0.0000 H       1  UNL1        0.0342
     41 H           1.6900    0.2131    0.0000 H       1  UNL1        0.0342
@<TRIPOS>BOND
     1     1    12    1
     2     1    14    1
     3     2    14    2
     4     3     4    1
     5     3     5    1
     6     3    16    1
     7     3    17    1
     8     4     6    1
     9     4    18    1
    10     4    19    1
    11     5     7    1
    12     5    20    1
    13     5    21    1
    14     6     8    1
    15     6    22    1
    16     6    23    1
    17     7     9    1
    18     7    24    1
    19     7    25    1
    20     8    10    1
    21     8    26    1
    22     8    27    1
    23     9    11    1
    24     9    28    1
    25     9    29    1
    26    10    12    1
    27    10    30    1
    28    10    31    1
    29    11    13    1
    30    11    32    1
    31    11    33    1
    32    12    34    1
    33    12    35    1
    34    13    36    1
    35    13    37    1
    36    13    38    1
    37    14    15    1
    38    15    39    1
    39    15    40    1
    40    15    41    1
