@<TRIPOS>MOLECULE
IMPHY015953
 33 32 0 0 0
SMALL
GASTEIGER

@<TRIPOS>ATOM
      1 O           2.5369   -0.8660    0.0000 O.3     1  UNL1       -0.3889
      2 C           3.4030   -0.3660    0.0000 C.3     1  UNL1        0.0631
      3 C           4.2690    0.1340    0.0000 C.3     1  UNL1       -0.0243
      4 C           5.1350   -0.3660    0.0000 C.3     1  UNL1       -0.0502
      5 C           6.0010    0.1340    0.0000 C.3     1  UNL1       -0.0506
      6 C           6.8671   -0.3660    0.0000 C.3     1  UNL1       -0.0467
      7 C           2.9030    0.5000    0.0000 C.3     1  UNL1       -0.0271
      8 C           3.9030   -1.2320    0.0000 C.3     1  UNL1       -0.0361
      9 C           7.7331    0.1340    0.0000 C.3     1  UNL1       -0.0627
     10 C           6.8671   -1.3660    0.0000 C.3     1  UNL1       -0.0627
     11 C           3.4030    1.3660    0.0000 C.3     1  UNL1       -0.0627
     12 H           4.6675    0.6089    0.0000 H       1  UNL1        0.0293
     13 H           3.8705    0.6089    0.0000 H       1  UNL1        0.0293
     14 H           4.7365   -0.8410    0.0000 H       1  UNL1        0.0266
     15 H           5.5335   -0.8410    0.0000 H       1  UNL1        0.0266
     16 H           6.3996    0.6089    0.0000 H       1  UNL1        0.0268
     17 H           5.6025    0.6089    0.0000 H       1  UNL1        0.0268
     18 H           6.3301   -0.6760    0.0000 H       1  UNL1        0.0295
     19 H           2.4280    0.8985    0.0000 H       1  UNL1        0.0290
     20 H           2.4280    0.1015    0.0000 H       1  UNL1        0.0290
     21 H           3.3660   -1.5420    0.0000 H       1  UNL1        0.0257
     22 H           4.2130   -1.7690    0.0000 H       1  UNL1        0.0257
     23 H           4.4399   -0.9221    0.0000 H       1  UNL1        0.0257
     24 H           8.0431   -0.4030    0.0000 H       1  UNL1        0.0232
     25 H           8.2700    0.4440    0.0000 H       1  UNL1        0.0232
     26 H           7.4231    0.6709    0.0000 H       1  UNL1        0.0232
     27 H           6.2471   -1.3660    0.0000 H       1  UNL1        0.0232
     28 H           6.8671   -1.9860    0.0000 H       1  UNL1        0.0232
     29 H           7.4871   -1.3660    0.0000 H       1  UNL1        0.0232
     30 H           3.9399    1.0560    0.0000 H       1  UNL1        0.0231
     31 H           3.7130    1.9030    0.0000 H       1  UNL1        0.0231
     32 H           2.8660    1.6760    0.0000 H       1  UNL1        0.0231
     33 H           2.0000   -0.5560    0.0000 H       1  UNL1        0.2101
@<TRIPOS>BOND
     1     1     2    1
     2     1    33    1
     3     2     3    1
     4     2     7    1
     5     2     8    1
     6     3     4    1
     7     3    12    1
     8     3    13    1
     9     4     5    1
    10     4    14    1
    11     4    15    1
    12     5     6    1
    13     5    16    1
    14     5    17    1
    15     6     9    1
    16     6    10    1
    17     6    18    1
    18     7    11    1
    19     7    19    1
    20     7    20    1
    21     8    21    1
    22     8    22    1
    23     8    23    1
    24     9    24    1
    25     9    25    1
    26     9    26    1
    27    10    27    1
    28    10    28    1
    29    10    29    1
    30    11    30    1
    31    11    31    1
    32    11    32    1
