@<TRIPOS>MOLECULE
IMPHY009907
 27 26 0 0 0
SMALL
GASTEIGER

@<TRIPOS>ATOM
      1 O           2.0000    2.0600    0.0000 O.2     1  UNL1       -0.3010
      2 C           3.7320    0.0600    0.0000 C.3     1  UNL1       -0.0283
      3 C           5.4641   -0.9400    0.0000 C.3     1  UNL1       -0.0165
      4 C           2.8660    0.5600    0.0000 C.3     1  UNL1        0.0062
      5 C           3.7320   -0.9400    0.0000 C.2     1  UNL1       -0.0873
      6 C           4.5981   -1.4400    0.0000 C.2     1  UNL1       -0.0842
      7 C           6.3301   -1.4400    0.0000 C.2     1  UNL1       -0.0842
      8 C           7.1962    0.0600    0.0000 C.3     1  UNL1       -0.0376
      9 C           7.1962   -0.9400    0.0000 C.2     1  UNL1       -0.0879
     10 C           8.0622    0.5600    0.0000 C.3     1  UNL1       -0.0618
     11 C           2.8660    1.5600    0.0000 C.2     1  UNL1        0.1206
     12 H           4.3426   -0.0477    0.0000 H       1  UNL1        0.0311
     13 H           3.9441    0.6426    0.0000 H       1  UNL1        0.0311
     14 H           5.8626   -0.4651    0.0000 H       1  UNL1        0.0350
     15 H           5.0656   -0.4651    0.0000 H       1  UNL1        0.0350
     16 H           2.2554    0.6677    0.0000 H       1  UNL1        0.0342
     17 H           2.6540   -0.0226    0.0000 H       1  UNL1        0.0342
     18 H           3.1951   -1.2500    0.0000 H       1  UNL1        0.0569
     19 H           4.5981   -2.0600    0.0000 H       1  UNL1        0.0572
     20 H           6.3301   -2.0600    0.0000 H       1  UNL1        0.0572
     21 H           6.9841    0.6426    0.0000 H       1  UNL1        0.0305
     22 H           6.5856   -0.0477    0.0000 H       1  UNL1        0.0305
     23 H           7.7331   -1.2500    0.0000 H       1  UNL1        0.0569
     24 H           8.3722    0.0231    0.0000 H       1  UNL1        0.0233
     25 H           8.5991    0.8700    0.0000 H       1  UNL1        0.0233
     26 H           7.7522    1.0969    0.0000 H       1  UNL1        0.0233
     27 H           3.4030    1.8700    0.0000 H       1  UNL1        0.1026
@<TRIPOS>BOND
     1     1    11    2
     2     2     4    1
     3     2     5    1
     4     2    12    1
     5     2    13    1
     6     3     6    1
     7     3     7    1
     8     3    14    1
     9     3    15    1
    10     4    11    1
    11     4    16    1
    12     4    17    1
    13     5     6    2
    14     5    18    1
    15     6    19    1
    16     7     9    2
    17     7    20    1
    18     8     9    1
    19     8    10    1
    20     8    21    1
    21     8    22    1
    22     9    23    1
    23    10    24    1
    24    10    25    1
    25    10    26    1
    26    11    27    1
