@<TRIPOS>MOLECULE
IMPHY000179
 54 56 0 0 0
SMALL
GASTEIGER

@<TRIPOS>ATOM
      1 O           7.2857   -1.2403    0.0000 O.3     1  UNL1       -0.3875
      2 O           2.3038   -2.1583    0.0000 O.3     1  UNL1       -0.3944
      3 O           3.8137   -3.0069    0.0000 O.3     1  UNL1       -0.3944
      4 O           2.0235    0.7839    0.0000 O.2     1  UNL1       -0.2974
      5 C           4.6876    0.2597    0.0000 C.3     1  UNL1       -0.0153
      6 C           4.6876   -0.7403    0.0000 C.3     1  UNL1       -0.0218
      7 C           5.5536    0.7597    0.0000 C.3     1  UNL1       -0.0114
      8 C           3.7937   -1.2750    0.0000 C.3     1  UNL1        0.0270
      9 C           5.5536   -1.2403    0.0000 C.3     1  UNL1       -0.0190
     10 C           3.7937    0.7944    0.0000 C.3     1  UNL1        0.0121
     11 C           6.4196    0.2597    0.0000 C.2     1  UNL1       -0.0409
     12 C           6.4196   -0.7403    0.0000 C.3     1  UNL1        0.0768
     13 C           5.5376    1.8012    0.0000 C.3     1  UNL1       -0.0449
     14 C           2.8876   -0.7611    0.0000 C.3     1  UNL1        0.0159
     15 C           4.6876    1.2597    0.0000 C.3     1  UNL1       -0.0584
     16 C           2.8876    0.2805    0.0000 C.2     1  UNL1        0.1346
     17 C           6.4356    2.3290    0.0000 C.3     1  UNL1       -0.0401
     18 C           7.3377    1.8082    0.0000 C.3     1  UNL1        0.0040
     19 C           3.3037   -2.1467    0.0000 C.3     1  UNL1        0.0526
     20 C           4.3036   -2.1351    0.0000 C.3     1  UNL1        0.0526
     21 C           7.3296    0.7666    0.0000 C.2     1  UNL1       -0.0724
     22 C           8.3377    1.8043    0.0000 C.3     1  UNL1       -0.0526
     23 C           7.8410    2.6722    0.0000 C.2     1  UNL1       -0.0815
     24 C           7.3444    3.5402    0.0000 C.2     1  UNL1       -0.1018
     25 H           4.6941   -1.5903    0.0000 H       1  UNL1        0.0314
     26 H           6.2864    1.1904    0.0000 H       1  UNL1        0.0352
     27 H           5.1551   -1.7152    0.0000 H       1  UNL1        0.0296
     28 H           5.9521   -1.7152    0.0000 H       1  UNL1        0.0296
     29 H           4.1982    1.2642    0.0000 H       1  UNL1        0.0347
     30 H           3.4000    1.2734    0.0000 H       1  UNL1        0.0347
     31 H           6.9566   -0.4303    0.0000 H       1  UNL1        0.0640
     32 H           5.3195    2.3816    0.0000 H       1  UNL1        0.0272
     33 H           4.9284    1.6857    0.0000 H       1  UNL1        0.0272
     34 H           2.2767   -0.6550    0.0000 H       1  UNL1        0.0348
     35 H           2.6785   -1.3448    0.0000 H       1  UNL1        0.0348
     36 H           5.3076    1.2597    0.0000 H       1  UNL1        0.0235
     37 H           4.6876    1.8797    0.0000 H       1  UNL1        0.0235
     38 H           4.0676    1.2597    0.0000 H       1  UNL1        0.0235
     39 H           6.8329    2.8049    0.0000 H       1  UNL1        0.0277
     40 H           6.0346    2.8019    0.0000 H       1  UNL1        0.0277
     41 H           3.2031   -2.7585    0.0000 H       1  UNL1        0.0563
     42 H           3.8887   -2.3520    0.0000 H       1  UNL1        0.0563
     43 H           4.7832   -2.5281    0.0000 H       1  UNL1        0.0563
     44 H           4.7739   -1.7311    0.0000 H       1  UNL1        0.0563
     45 H           7.8630    0.4504    0.0000 H       1  UNL1        0.0581
     46 H           7.2857   -1.8603    0.0000 H       1  UNL1        0.2102
     47 H           8.3353    1.1843    0.0000 H       1  UNL1        0.0241
     48 H           8.9577    1.8019    0.0000 H       1  UNL1        0.0241
     49 H           8.3401    2.4243    0.0000 H       1  UNL1        0.0241
     50 H           8.4610    2.6699    0.0000 H       1  UNL1        0.0575
     51 H           2.0000   -2.6987    0.0000 H       1  UNL1        0.2094
     52 H           4.1299   -3.5402    0.0000 H       1  UNL1        0.2094
     53 H           7.6564    4.0759    0.0000 H       1  UNL1        0.0532
     54 H           6.7244    3.5426    0.0000 H       1  UNL1        0.0532
@<TRIPOS>BOND
     1    12     1    1
     2     1    46    1
     3     2    19    1
     4     2    51    1
     5     3    20    1
     6     3    52    1
     7     4    16    2
     8     5     6    1
     9     5     7    1
    10     5    10    1
    11     5    15    1
    12     6     8    1
    13     6     9    1
    14     6    25    1
    15     7    11    1
    16     7    13    1
    17     7    26    1
    18     8    14    1
    19     8    19    1
    20     8    20    1
    21     9    12    1
    22     9    27    1
    23     9    28    1
    24    10    16    1
    25    10    29    1
    26    10    30    1
    27    11    12    1
    28    11    21    2
    29    12    31    1
    30    13    17    1
    31    13    32    1
    32    13    33    1
    33    14    16    1
    34    14    34    1
    35    14    35    1
    36    15    36    1
    37    15    37    1
    38    15    38    1
    39    17    18    1
    40    17    39    1
    41    17    40    1
    42    18    21    1
    43    18    22    1
    44    18    23    1
    45    19    41    1
    46    19    42    1
    47    20    43    1
    48    20    44    1
    49    21    45    1
    50    22    47    1
    51    22    48    1
    52    22    49    1
    53    23    24    2
    54    23    50    1
    55    24    53    1
    56    24    54    1
