@<TRIPOS>MOLECULE
IMPHY008738
 65 67 0 0 0
SMALL
GASTEIGER

@<TRIPOS>ATOM
      1 CL          5.5450    0.0000    0.0000 Cl      1  UNL1        0.0000
      2 O           5.7979    4.5921    0.0000 O.2     2  UNL2       -0.4545
      3 O           7.9908    9.2055    0.0000 O.3     2  UNL2       -0.4771
      4 O           8.2915    7.4997    0.0000 O.2     2  UNL2       -0.2451
      5 N           9.3280    4.5680    0.0000 N.2     2  UNL2       -0.2290
      6 N           2.2678    4.5680    0.0000 N.pl3   2  UNL2       -0.3303
      7 C           5.7979    6.5921    0.0000 C.ar    2  UNL2        0.0042
      8 C           6.6639    6.0921    0.0000 C.ar    2  UNL2        0.0261
      9 C           4.9319    6.0921    0.0000 C.ar    2  UNL2        0.0258
     10 C           6.6639    5.0921    0.0000 C.ar    2  UNL2        0.1424
     11 C           4.9319    5.0921    0.0000 C.ar    2  UNL2        0.1379
     12 C           8.4639    5.0713    0.0000 C.ar    2  UNL2        0.2061
     13 C           3.1319    5.0713    0.0000 C.ar    2  UNL2        0.0332
     14 C           5.7979    7.5921    0.0000 C.ar    2  UNL2       -0.0026
     15 C           7.5579    4.5575    0.0000 C.ar    2  UNL2        0.0521
     16 C           4.0379    4.5575    0.0000 C.ar    2  UNL2        0.0023
     17 C           7.5579    6.6268    0.0000 C.ar    2  UNL2       -0.0443
     18 C           4.0379    6.6268    0.0000 C.ar    2  UNL2       -0.0487
     19 C           8.4639    6.1129    0.0000 C.ar    2  UNL2        0.0101
     20 C           3.1319    6.1129    0.0000 C.ar    2  UNL2       -0.0399
     21 C          10.1960    5.0646    0.0000 C.3     2  UNL2        0.1428
     22 C           9.3242    3.5680    0.0000 C.3     2  UNL2        0.1428
     23 C           1.3998    5.0646    0.0000 C.3     2  UNL2        0.0093
     24 C           2.2716    3.5680    0.0000 C.3     2  UNL2        0.0093
     25 C           6.6639    8.0921    0.0000 C.ar    2  UNL2        0.0665
     26 C           4.9319    8.0921    0.0000 C.ar    2  UNL2       -0.0532
     27 C          10.1883    3.0646    0.0000 C.3     2  UNL2       -0.0054
     28 C          11.0601    4.5613    0.0000 C.3     2  UNL2       -0.0054
     29 C           1.4075    3.0646    0.0000 C.3     2  UNL2       -0.0494
     30 C           0.5357    4.5613    0.0000 C.3     2  UNL2       -0.0494
     31 C           6.6639    9.0921    0.0000 C.ar    2  UNL2       -0.0472
     32 C           4.9319    9.0921    0.0000 C.ar    2  UNL2       -0.0611
     33 C           5.7979    9.5921    0.0000 C.ar    2  UNL2       -0.0609
     34 C           7.6487    8.2658    0.0000 C.2     2  UNL2        0.3374
     35 H           7.5507    3.9375    0.0000 H       2  UNL2        0.0721
     36 H           4.0451    3.9375    0.0000 H       2  UNL2        0.0673
     37 H           7.5507    7.2467    0.0000 H       2  UNL2        0.0627
     38 H           4.0451    7.2467    0.0000 H       2  UNL2        0.0625
     39 H           8.9997    6.4250    0.0000 H       2  UNL2        0.0683
     40 H           2.5961    6.4250    0.0000 H       2  UNL2        0.0636
     41 H          10.5963    5.5380    0.0000 H       2  UNL2        0.1023
     42 H           9.7993    5.5411    0.0000 H       2  UNL2        0.1023
     43 H           8.7140    3.6780    0.0000 H       2  UNL2        0.1023
     44 H           9.1099    2.9862    0.0000 H       2  UNL2        0.1023
     45 H           1.7965    5.5411    0.0000 H       2  UNL2        0.0461
     46 H           0.9995    5.5380    0.0000 H       2  UNL2        0.0461
     47 H           2.4859    2.9862    0.0000 H       2  UNL2        0.0461
     48 H           2.8818    3.6780    0.0000 H       2  UNL2        0.0461
     49 H           4.3949    7.7821    0.0000 H       2  UNL2        0.0624
     50 H           9.8762    2.5289    0.0000 H       2  UNL2        0.0291
     51 H          10.7240    2.7526    0.0000 H       2  UNL2        0.0291
     52 H          10.5003    3.6004    0.0000 H       2  UNL2        0.0291
     53 H          10.7480    4.0256    0.0000 H       2  UNL2        0.0291
     54 H          11.5958    4.2492    0.0000 H       2  UNL2        0.0291
     55 H          11.3721    5.0970    0.0000 H       2  UNL2        0.0291
     56 H           1.0955    3.6004    0.0000 H       2  UNL2        0.0245
     57 H           0.2237    5.0970    0.0000 H       2  UNL2        0.0245
     58 H           0.0000    4.2492    0.0000 H       2  UNL2        0.0245
     59 H           0.8478    4.0256    0.0000 H       2  UNL2        0.0245
     60 H           0.8718    2.7526    0.0000 H       2  UNL2        0.0245
     61 H           1.7196    2.5289    0.0000 H       2  UNL2        0.0245
     62 H           7.2009    9.4021    0.0000 H       2  UNL2        0.0626
     63 H           4.3949    9.4021    0.0000 H       2  UNL2        0.0618
     64 H           5.7979   10.2121    0.0000 H       2  UNL2        0.0618
     65 H           7.5922    9.6804    0.0000 H       2  UNL2        0.2954
@<TRIPOS>UNITY_ATOM_ATTR
1 1
charge -1
5 1
charge 1
@<TRIPOS>BOND
     1     2    10   ar
     2     2    11   ar
     3     3    34    1
     4     3    65    1
     5     4    34    2
     6     5    12    2
     7     5    21    1
     8     5    22    1
     9     6    13    1
    10     6    23    1
    11     6    24    1
    12     7     8   ar
    13     7     9   ar
    14     7    14    1
    15     8    10    1
    16     8    17   ar
    17     9    11   ar
    18     9    18   ar
    19    10    15   ar
    20    11    16   ar
    21    12    15   ar
    22    12    19   ar
    23    13    16   ar
    24    13    20   ar
    25    14    25   ar
    26    14    26   ar
    27    15    35    1
    28    16    36    1
    29    17    19   ar
    30    17    37    1
    31    18    20   ar
    32    18    38    1
    33    19    39    1
    34    20    40    1
    35    21    28    1
    36    21    41    1
    37    21    42    1
    38    22    27    1
    39    22    43    1
    40    22    44    1
    41    23    30    1
    42    23    45    1
    43    23    46    1
    44    24    29    1
    45    24    47    1
    46    24    48    1
    47    25    31   ar
    48    25    34    1
    49    26    32   ar
    50    26    49    1
    51    27    50    1
    52    27    51    1
    53    27    52    1
    54    28    53    1
    55    28    54    1
    56    28    55    1
    57    29    56    1
    58    29    60    1
    59    29    61    1
    60    30    57    1
    61    30    58    1
    62    30    59    1
    63    31    33   ar
    64    31    62    1
    65    32    33   ar
    66    32    63    1
    67    33    64    1
