@<TRIPOS>MOLECULE
IMPHY000867
 67 70 0 0 0
SMALL
GASTEIGER

@<TRIPOS>ATOM
      1 O           6.3821    0.0254    0.0000 O.2     1  UNL1       -0.4539
      2 O           7.3403   -1.5201    0.0000 O.2     1  UNL1       -0.5056
      3 O           3.7840    1.5254    0.0000 O.2     1  UNL1       -0.2866
      4 O           3.7578   -3.6255    0.0000 O.2     1  UNL1       -0.2835
      5 O           5.5692   -4.6713    0.0000 O.2     1  UNL1       -0.2834
      6 O           4.6283    3.0569    0.0000 O.3     1  UNL1       -0.5055
      7 O           8.1681    3.0705    0.0000 O.3     1  UNL1       -0.5062
      8 C           3.7320   -1.5230    0.0000 C.3     1  UNL1        0.0134
      9 C           3.7401   -0.4814    0.0000 C.3     1  UNL1       -0.0098
     10 C           4.6341   -2.0438    0.0000 C.2     1  UNL1        0.0247
     11 C           4.6501    0.0254    0.0000 C.ar    1  UNL1        0.0439
     12 C           5.5322   -1.5161    0.0000 C.2     1  UNL1        0.0669
     13 C           5.5161   -0.4746    0.0000 C.ar    1  UNL1        0.1463
     14 C           2.8641   -2.0197    0.0000 C.2     1  UNL1       -0.0719
     15 C           6.4841   -2.0367    0.0000 C.2     1  UNL1        0.1351
     16 C           4.6501    1.0254    0.0000 C.ar    1  UNL1        0.1998
     17 C           4.6258   -3.1288    0.0000 C.2     1  UNL1        0.2302
     18 C           5.5161    1.5254    0.0000 C.ar    1  UNL1        0.1060
     19 C           6.5008   -3.1216    0.0000 C.2     1  UNL1        0.0489
     20 C           6.3821    1.0254    0.0000 C.ar    1  UNL1        0.1463
     21 C           5.5654   -3.6713    0.0000 C.2     1  UNL1        0.2325
     22 C           2.0000   -1.5163    0.0000 C.3     1  UNL1       -0.0435
     23 C           5.5000    2.5669    0.0000 C.ar    1  UNL1        0.1381
     24 C           7.3726   -3.6115    0.0000 C.3     1  UNL1       -0.0020
     25 C           6.3981    3.0947    0.0000 C.ar    1  UNL1        0.0400
     26 C           2.8602   -3.0197    0.0000 C.2     1  UNL1       -0.0991
     27 C           7.2921    1.5323    0.0000 C.ar    1  UNL1        0.0234
     28 C           7.3002    2.5739    0.0000 C.ar    1  UNL1        0.1273
     29 C           6.3942    4.0947    0.0000 C.3     1  UNL1       -0.0023
     30 C           7.3841   -4.6115    0.0000 C.2     1  UNL1       -0.0807
     31 C           8.2559   -5.1014    0.0000 C.2     1  UNL1       -0.0793
     32 C           7.2583    4.5980    0.0000 C.2     1  UNL1       -0.0807
     33 C           7.2545    5.5980    0.0000 C.2     1  UNL1       -0.0793
     34 C           8.2674   -6.1013    0.0000 C.3     1  UNL1       -0.0440
     35 C           9.1161   -4.5914    0.0000 C.3     1  UNL1       -0.0440
     36 C           8.1186    6.1013    0.0000 C.3     1  UNL1       -0.0440
     37 C           6.3865    6.0947    0.0000 C.3     1  UNL1       -0.0440
     38 H           3.7308   -2.1430    0.0000 H       1  UNL1        0.0398
     39 H           3.5355    0.1039    0.0000 H       1  UNL1        0.0324
     40 H           3.1284   -0.5828    0.0000 H       1  UNL1        0.0324
     41 H           2.3121   -0.9806    0.0000 H       1  UNL1        0.0274
     42 H           1.4643   -1.2043    0.0000 H       1  UNL1        0.0274
     43 H           1.6879   -2.0521    0.0000 H       1  UNL1        0.0274
     44 H           7.9843   -3.7121    0.0000 H       1  UNL1        0.0358
     45 H           7.5779   -3.0265    0.0000 H       1  UNL1        0.0358
     46 H           2.3221   -3.3276    0.0000 H       1  UNL1        0.0534
     47 H           3.3960   -3.3317    0.0000 H       1  UNL1        0.0534
     48 H           7.8254    1.2161    0.0000 H       1  UNL1        0.0691
     49 H           7.8831   -1.8197    0.0000 H       1  UNL1        0.2922
     50 H           6.1799    4.6765    0.0000 H       1  UNL1        0.0358
     51 H           5.7841    3.9847    0.0000 H       1  UNL1        0.0358
     52 H           6.8508   -4.9276    0.0000 H       1  UNL1        0.0575
     53 H           4.6211    3.6768    0.0000 H       1  UNL1        0.2922
     54 H           7.7964    4.2901    0.0000 H       1  UNL1        0.0575
     55 H           8.7038    2.7585    0.0000 H       1  UNL1        0.2921
     56 H           9.4322   -5.1247    0.0000 H       1  UNL1        0.0274
     57 H           9.6494   -4.2752    0.0000 H       1  UNL1        0.0274
     58 H           8.7999   -4.0581    0.0000 H       1  UNL1        0.0274
     59 H           7.6475   -6.1085    0.0000 H       1  UNL1        0.0274
     60 H           8.2746   -6.7213    0.0000 H       1  UNL1        0.0274
     61 H           8.8874   -6.0942    0.0000 H       1  UNL1        0.0274
     62 H           6.6944    6.6328    0.0000 H       1  UNL1        0.0274
     63 H           5.8484    6.4026    0.0000 H       1  UNL1        0.0274
     64 H           6.0786    5.5565    0.0000 H       1  UNL1        0.0274
     65 H           8.4306    5.5656    0.0000 H       1  UNL1        0.0274
     66 H           8.6543    6.4134    0.0000 H       1  UNL1        0.0274
     67 H           7.8065    6.6371    0.0000 H       1  UNL1        0.0274
@<TRIPOS>BOND
     1     1    13   ar
     2     1    20   ar
     3     2    15    1
     4     2    49    1
     5     3    16    2
     6     4    17    2
     7     5    21    2
     8     6    23    1
     9     6    53    1
    10     7    28    1
    11     7    55    1
    12     8     9    1
    13     8    10    1
    14     8    14    1
    15     8    38    1
    16     9    11    1
    17     9    39    1
    18     9    40    1
    19    10    12    2
    20    10    17    1
    21    11    13   ar
    22    11    16   ar
    23    12    13    1
    24    12    15    1
    25    14    22    1
    26    14    26    2
    27    15    19    2
    28    16    18   ar
    29    17    21    1
    30    18    20   ar
    31    18    23   ar
    32    19    21    1
    33    19    24    1
    34    20    27   ar
    35    22    41    1
    36    22    42    1
    37    22    43    1
    38    23    25   ar
    39    24    30    1
    40    24    44    1
    41    24    45    1
    42    25    28   ar
    43    25    29    1
    44    26    46    1
    45    26    47    1
    46    27    28   ar
    47    27    48    1
    48    29    32    1
    49    29    50    1
    50    29    51    1
    51    30    31    2
    52    30    52    1
    53    31    34    1
    54    31    35    1
    55    32    33    2
    56    32    54    1
    57    33    36    1
    58    33    37    1
    59    34    59    1
    60    34    60    1
    61    34    61    1
    62    35    56    1
    63    35    57    1
    64    35    58    1
    65    36    65    1
    66    36    66    1
    67    36    67    1
    68    37    62    1
    69    37    63    1
    70    37    64    1
