@<TRIPOS>MOLECULE
IMPHY008379
 73 76 0 0 0
SMALL
GASTEIGER

@<TRIPOS>ATOM
      1 O           5.1350   -1.2947    0.0000 O.3     1  UNL1       -0.3313
      2 O           6.8671   -1.2947    0.0000 O.3     1  UNL1       -0.4568
      3 O           5.1350   -4.2947    0.0000 O.3     1  UNL1       -0.3864
      4 O           3.4030   -3.2947    0.0000 O.3     1  UNL1       -0.3865
      5 O           6.8671   -3.2947    0.0000 O.3     1  UNL1       -0.3829
      6 O           2.5369   -1.7947    0.0000 O.3     1  UNL1       -0.3924
      7 O           8.5367    2.6530    0.0000 O.3     1  UNL1       -0.3918
      8 O           5.1524   -0.3048    0.0000 O.3     1  UNL1       -0.4885
      9 O           5.1524    1.6751    0.0000 O.3     1  UNL1       -0.4907
     10 O           5.1524    2.6349    0.0000 O.3     1  UNL1       -0.5062
     11 C           5.1350   -3.2947    0.0000 C.3     1  UNL1        0.1152
     12 C           4.2690   -2.7947    0.0000 C.3     1  UNL1        0.1120
     13 C           6.0010   -2.7947    0.0000 C.3     1  UNL1        0.1454
     14 C           4.2690   -1.7947    0.0000 C.3     1  UNL1        0.1140
     15 C           6.0010   -1.7947    0.0000 C.3     1  UNL1        0.2310
     16 C           3.4030   -1.2947    0.0000 C.3     1  UNL1        0.0731
     17 C           6.8671   -0.2947    0.0000 C.ar    1  UNL1        0.1723
     18 C           7.7157    0.1952    0.0000 C.ar    1  UNL1       -0.0011
     19 C           8.5643   -0.2947    0.0000 C.3     1  UNL1       -0.0241
     20 C           9.4129    0.1952    0.0000 C.3     1  UNL1       -0.0489
     21 C           9.4129    1.1751    0.0000 C.3     1  UNL1       -0.0504
     22 C          10.0898    2.1223    0.0000 C.3     1  UNL1       -0.0268
     23 C           9.4129    3.1349    0.0000 C.3     1  UNL1        0.0556
     24 C           9.4129    4.1148    0.0000 C.3     1  UNL1       -0.0229
     25 C           6.0185    0.1952    0.0000 C.ar    1  UNL1        0.2045
     26 C           7.7157    1.1751    0.0000 C.ar    1  UNL1       -0.0435
     27 C           6.8671    1.6651    0.0000 C.ar    1  UNL1        0.0314
     28 C           8.5643    4.6047    0.0000 C.3     1  UNL1       -0.0253
     29 C           6.0185    1.1751    0.0000 C.ar    1  UNL1        0.1730
     30 C           6.8671    2.6449    0.0000 C.ar    1  UNL1        0.0274
     31 C           7.7157    4.1148    0.0000 C.ar    1  UNL1       -0.0465
     32 C           7.7157    3.1349    0.0000 C.ar    1  UNL1       -0.0472
     33 C           6.0185    3.1349    0.0000 C.ar    1  UNL1        0.1247
     34 C           6.8671    4.6047    0.0000 C.ar    1  UNL1       -0.0551
     35 C           6.0185    4.1148    0.0000 C.ar    1  UNL1       -0.0193
     36 C           4.2864    0.1952    0.0000 C.3     1  UNL1        0.0791
     37 C           4.2864    1.1751    0.0000 C.3     1  UNL1        0.0790
     38 H           5.6720   -3.6047    0.0000 H       1  UNL1        0.0648
     39 H           4.2690   -3.4147    0.0000 H       1  UNL1        0.0647
     40 H           6.5380   -2.4847    0.0000 H       1  UNL1        0.0683
     41 H           4.2690   -1.1747    0.0000 H       1  UNL1        0.0647
     42 H           6.0010   -1.1747    0.0000 H       1  UNL1        0.1084
     43 H           3.8015   -0.8198    0.0000 H       1  UNL1        0.0584
     44 H           3.0044   -0.8198    0.0000 H       1  UNL1        0.0584
     45 H           8.1657   -0.7697    0.0000 H       1  UNL1        0.0314
     46 H           8.9628   -0.7697    0.0000 H       1  UNL1        0.0314
     47 H           9.6249   -0.3874    0.0000 H       1  UNL1        0.0268
     48 H          10.0235    0.3029    0.0000 H       1  UNL1        0.0268
     49 H           9.0458    1.6748    0.0000 H       1  UNL1        0.0266
     50 H          10.0033    0.9858    0.0000 H       1  UNL1        0.0266
     51 H          10.5473    1.7039    0.0000 H       1  UNL1        0.0290
     52 H          10.5601    2.5263    0.0000 H       1  UNL1        0.0290
     53 H           8.8792    3.4504    0.0000 H       1  UNL1        0.0593
     54 H           4.5981   -4.6047    0.0000 H       1  UNL1        0.2100
     55 H           3.4030   -3.9147    0.0000 H       1  UNL1        0.2100
     56 H           6.8671   -3.9147    0.0000 H       1  UNL1        0.2102
     57 H          10.0235    4.0071    0.0000 H       1  UNL1        0.0293
     58 H           9.6249    4.6974    0.0000 H       1  UNL1        0.0293
     59 H           8.2526    1.4851    0.0000 H       1  UNL1        0.0629
     60 H           8.9628    5.0797    0.0000 H       1  UNL1        0.0314
     61 H           8.1657    5.0797    0.0000 H       1  UNL1        0.0314
     62 H           2.0000   -1.4847    0.0000 H       1  UNL1        0.2095
     63 H           8.2526    2.8249    0.0000 H       1  UNL1        0.0627
     64 H           6.8671    5.2247    0.0000 H       1  UNL1        0.0621
     65 H           8.5238    2.0331    0.0000 H       1  UNL1        0.2098
     66 H           5.4815    4.4248    0.0000 H       1  UNL1        0.0654
     67 H           4.5964    0.7322    0.0000 H       1  UNL1        0.0660
     68 H           3.7495    0.5052    0.0000 H       1  UNL1        0.0660
     69 H           3.9764   -0.3417    0.0000 H       1  UNL1        0.0660
     70 H           3.9764    1.7121    0.0000 H       1  UNL1        0.0660
     71 H           3.7495    0.8651    0.0000 H       1  UNL1        0.0660
     72 H           4.5964    0.6382    0.0000 H       1  UNL1        0.0660
     73 H           4.6155    2.9449    0.0000 H       1  UNL1        0.2922
@<TRIPOS>BOND
     1     1    14    1
     2     1    15    1
     3     2    15    1
     4     2    17    1
     5     3    11    1
     6     3    54    1
     7     4    12    1
     8     4    55    1
     9     5    13    1
    10     5    56    1
    11     6    16    1
    12     6    62    1
    13     7    23    1
    14     7    65    1
    15     8    25    1
    16     8    36    1
    17     9    29    1
    18     9    37    1
    19    10    33    1
    20    10    73    1
    21    11    12    1
    22    11    13    1
    23    11    38    1
    24    12    14    1
    25    12    39    1
    26    13    15    1
    27    13    40    1
    28    14    16    1
    29    14    41    1
    30    15    42    1
    31    16    43    1
    32    16    44    1
    33    17    18   ar
    34    17    25   ar
    35    18    19    1
    36    18    26   ar
    37    19    20    1
    38    19    45    1
    39    19    46    1
    40    20    21    1
    41    20    47    1
    42    20    48    1
    43    21    22    1
    44    21    49    1
    45    21    50    1
    46    22    23    1
    47    22    51    1
    48    22    52    1
    49    23    24    1
    50    23    53    1
    51    24    28    1
    52    24    57    1
    53    24    58    1
    54    25    29   ar
    55    26    27   ar
    56    26    59    1
    57    27    29   ar
    58    27    30    1
    59    28    31    1
    60    28    60    1
    61    28    61    1
    62    30    32   ar
    63    30    33   ar
    64    31    32   ar
    65    31    34   ar
    66    32    63    1
    67    33    35   ar
    68    34    35   ar
    69    34    64    1
    70    35    66    1
    71    36    67    1
    72    36    68    1
    73    36    69    1
    74    37    70    1
    75    37    71    1
    76    37    72    1
