@<TRIPOS>MOLECULE
IMPHY017762
 14 13 0 0 0
SMALL
GASTEIGER

@<TRIPOS>ATOM
      1 O           2.5369   -0.2500    0.0000 O.3     1  UNL1       -0.3825
      2 C           6.0010    0.7500    0.0000 C.3     1  UNL1        0.0064
      3 C           6.8671    0.2500    0.0000 C.3     1  UNL1       -0.0543
      4 C           5.1350    0.2500    0.0000 C.1     1  UNL1       -0.1002
      5 C           3.4030   -0.7500    0.0000 C.3     1  UNL1        0.1048
      6 C           4.2690   -0.2500    0.0000 C.1     1  UNL1       -0.0743
      7 H           6.3996    1.2250    0.0000 H       1  UNL1        0.0395
      8 H           5.6025    1.2250    0.0000 H       1  UNL1        0.0395
      9 H           6.5571   -0.2869    0.0000 H       1  UNL1        0.0239
     10 H           7.4040   -0.0600    0.0000 H       1  UNL1        0.0239
     11 H           7.1771    0.7869    0.0000 H       1  UNL1        0.0239
     12 H           3.0044   -1.2250    0.0000 H       1  UNL1        0.0694
     13 H           3.8015   -1.2250    0.0000 H       1  UNL1        0.0694
     14 H           2.0000   -0.5600    0.0000 H       1  UNL1        0.2107
@<TRIPOS>BOND
     1     1     5    1
     2     1    14    1
     3     2     3    1
     4     2     4    1
     5     2     7    1
     6     2     8    1
     7     3     9    1
     8     3    10    1
     9     3    11    1
    10     4     6    3
    11     5     6    1
    12     5    12    1
    13     5    13    1
