@<TRIPOS>MOLECULE
IMPHY015221
 10 10 0 0 0
SMALL
GASTEIGER

@<TRIPOS>ATOM
      1 O           2.8090   -0.7694    0.0000 O.3     1  UNL1       -0.4337
      2 O           4.5691   -0.4907    0.0000 O.2     1  UNL1       -0.2501
      3 C           3.3090    0.7694    0.0000 C.3     1  UNL1        0.0666
      4 C           2.3090    0.7694    0.0000 C.2     1  UNL1       -0.0384
      5 C           3.6180   -0.1816    0.0000 C.2     1  UNL1        0.3157
      6 C           2.0000   -0.1816    0.0000 C.2     1  UNL1        0.0922
      7 H           3.9155    0.8983    0.0000 H       1  UNL1        0.0421
      8 H           3.2442    1.3860    0.0000 H       1  UNL1        0.0421
      9 H           1.9446    1.2710    0.0000 H       1  UNL1        0.0608
     10 H           1.4103   -0.3732    0.0000 H       1  UNL1        0.1027
@<TRIPOS>BOND
     1     1     5    1
     2     1     6    1
     3     2     5    2
     4     3     4    1
     5     3     5    1
     6     3     7    1
     7     3     8    1
     8     4     6    2
     9     4     9    1
    10     6    10    1
