@<TRIPOS>MOLECULE
IMPHY000679
 80 85 0 0 0
SMALL
GASTEIGER

@<TRIPOS>ATOM
      1 O           7.7662    1.7904    0.0000 O.3     1  UNL1       -0.3877
      2 O           6.0010   -3.4132    0.0000 O.3     1  UNL1       -0.3414
      3 O           3.9166    5.0298    0.0000 O.2     1  UNL1       -0.4303
      4 O           4.2690   -3.4132    0.0000 O.3     1  UNL1       -0.3431
      5 O           3.5529    6.7232    0.0000 O.2     1  UNL1       -0.2452
      6 O           6.0010   -5.4132    0.0000 O.3     1  UNL1       -0.3841
      7 O           4.2690   -6.4132    0.0000 O.3     1  UNL1       -0.3864
      8 O           2.5369   -5.4132    0.0000 O.3     1  UNL1       -0.3866
      9 C           6.8982    2.2870    0.0000 C.3     1  UNL1        0.0751
     10 C           6.0303    2.7837    0.0000 C.3     1  UNL1        0.0039
     11 C           6.9021    1.2870    0.0000 C.3     1  UNL1       -0.0077
     12 C           6.0380    0.7837    0.0000 C.3     1  UNL1       -0.0265
     13 C           6.0260   -0.2579    0.0000 C.3     1  UNL1       -0.0077
     14 C           6.2358    3.7563    0.0000 C.3     1  UNL1       -0.0049
     15 C           5.1662    2.2804    0.0000 C.3     1  UNL1       -0.0442
     16 C           5.1701    1.2804    0.0000 C.3     1  UNL1       -0.0485
     17 C           7.6327    2.9570    0.0000 C.3     1  UNL1       -0.0226
     18 C           7.8140    0.7837    0.0000 C.3     1  UNL1       -0.0436
     19 C           7.2241    3.8632    0.0000 C.3     1  UNL1       -0.0429
     20 C           6.9260   -0.7822    0.0000 C.2     1  UNL1       -0.0649
     21 C           5.1624    3.2803    0.0000 C.3     1  UNL1       -0.0564
     22 C           7.8261   -0.2579    0.0000 C.3     1  UNL1       -0.0308
     23 C           5.0761   -0.7822    0.0000 C.3     1  UNL1       -0.0410
     24 C           5.1619    0.2455    0.0000 C.3     1  UNL1       -0.0556
     25 C           5.5650    4.4980    0.0000 C.ar    1  UNL1       -0.0085
     26 C           5.0635   -1.8671    0.0000 C.3     1  UNL1       -0.0221
     27 C           6.9386   -1.8671    0.0000 C.2     1  UNL1       -0.0558
     28 C           6.0010   -2.4132    0.0000 C.3     1  UNL1        0.0802
     29 C           5.8720    5.4497    0.0000 C.ar    1  UNL1       -0.0486
     30 C           4.5873    4.2880    0.0000 C.ar    1  UNL1        0.0994
     31 C           5.2013    6.1914    0.0000 C.ar    1  UNL1        0.0233
     32 C           5.1350   -3.9132    0.0000 C.3     1  UNL1        0.1884
     33 C           4.2236    5.9815    0.0000 C.ar    1  UNL1        0.3367
     34 C           5.1350   -4.9132    0.0000 C.3     1  UNL1        0.1341
     35 C           4.2690   -5.4132    0.0000 C.3     1  UNL1        0.1140
     36 C           3.4030   -3.9132    0.0000 C.3     1  UNL1        0.0873
     37 C           3.4030   -4.9132    0.0000 C.3     1  UNL1        0.1095
     38 C           2.5369   -3.4132    0.0000 C.3     1  UNL1       -0.0361
     39 H           7.6333    1.7205    0.0000 H       1  UNL1        0.0332
     40 H           6.7725    0.3559    0.0000 H       1  UNL1        0.0313
     41 H           6.4565    4.3357    0.0000 H       1  UNL1        0.0356
     42 H           4.9519    2.8621    0.0000 H       1  UNL1        0.0272
     43 H           4.5560    2.1703    0.0000 H       1  UNL1        0.0272
     44 H           4.5591    1.3857    0.0000 H       1  UNL1        0.0268
     45 H           4.9602    0.6969    0.0000 H       1  UNL1        0.0268
     46 H           8.0000    2.4575    0.0000 H       1  UNL1        0.0293
     47 H           8.1680    3.2698    0.0000 H       1  UNL1        0.0293
     48 H           8.4261    0.6847    0.0000 H       1  UNL1        0.0272
     49 H           8.0163    1.3698    0.0000 H       1  UNL1        0.0272
     50 H           7.8129    4.0572    0.0000 H       1  UNL1        0.0272
     51 H           7.0930    4.4692    0.0000 H       1  UNL1        0.0272
     52 H           5.4703    3.8185    0.0000 H       1  UNL1        0.0236
     53 H           4.6242    3.5883    0.0000 H       1  UNL1        0.0236
     54 H           4.8544    2.7422    0.0000 H       1  UNL1        0.0236
     55 H           8.0419   -0.8391    0.0000 H       1  UNL1        0.0310
     56 H           8.4357   -0.1447    0.0000 H       1  UNL1        0.0310
     57 H           4.8738   -0.1961    0.0000 H       1  UNL1        0.0275
     58 H           4.4640   -0.8812    0.0000 H       1  UNL1        0.0275
     59 H           8.3019    2.1024    0.0000 H       1  UNL1        0.2102
     60 H           5.4739    0.7812    0.0000 H       1  UNL1        0.0238
     61 H           4.6261    0.5575    0.0000 H       1  UNL1        0.0238
     62 H           4.8498   -0.2903    0.0000 H       1  UNL1        0.0238
     63 H           4.4539   -1.7539    0.0000 H       1  UNL1        0.0294
     64 H           4.8477   -2.4483    0.0000 H       1  UNL1        0.0294
     65 H           7.4779   -2.1729    0.0000 H       1  UNL1        0.0597
     66 H           6.5386   -2.7222    0.0000 H       1  UNL1        0.0641
     67 H           6.4782    5.5799    0.0000 H       1  UNL1        0.0623
     68 H           4.3970    3.6980    0.0000 H       1  UNL1        0.1033
     69 H           5.3917    6.7815    0.0000 H       1  UNL1        0.0689
     70 H           5.1350   -3.0632    0.0000 H       1  UNL1        0.0938
     71 H           5.1350   -5.7632    0.0000 H       1  UNL1        0.0671
     72 H           3.5329   -5.8382    0.0000 H       1  UNL1        0.0648
     73 H           3.4030   -3.0632    0.0000 H       1  UNL1        0.0621
     74 H           2.6668   -4.4882    0.0000 H       1  UNL1        0.0646
     75 H           6.0010   -6.0332    0.0000 H       1  UNL1        0.2101
     76 H           2.8469   -2.8763    0.0000 H       1  UNL1        0.0255
     77 H           2.0000   -3.1032    0.0000 H       1  UNL1        0.0255
     78 H           2.2269   -3.9501    0.0000 H       1  UNL1        0.0255
     79 H           3.7320   -6.7232    0.0000 H       1  UNL1        0.2100
     80 H           2.0000   -5.1032    0.0000 H       1  UNL1        0.2100
@<TRIPOS>BOND
     1     9     1    1
     2     1    59    1
     3    28     2    1
     4     2    32    1
     5     3    30   ar
     6     3    33   ar
     7     4    32    1
     8     4    36    1
     9     5    33    2
    10     6    34    1
    11     6    75    1
    12     7    35    1
    13     7    79    1
    14     8    37    1
    15     8    80    1
    16     9    10    1
    17     9    11    1
    18     9    17    1
    19    10    14    1
    20    10    15    1
    21    10    21    1
    22    11    12    1
    23    11    18    1
    24    11    39    1
    25    12    13    1
    26    12    16    1
    27    12    40    1
    28    13    20    1
    29    13    23    1
    30    13    24    1
    31    14    19    1
    32    14    25    1
    33    14    41    1
    34    15    16    1
    35    15    42    1
    36    15    43    1
    37    16    44    1
    38    16    45    1
    39    17    19    1
    40    17    46    1
    41    17    47    1
    42    18    22    1
    43    18    48    1
    44    18    49    1
    45    19    50    1
    46    19    51    1
    47    20    22    1
    48    20    27    2
    49    21    52    1
    50    21    53    1
    51    21    54    1
    52    22    55    1
    53    22    56    1
    54    23    26    1
    55    23    57    1
    56    23    58    1
    57    24    60    1
    58    24    61    1
    59    24    62    1
    60    25    29   ar
    61    25    30   ar
    62    26    28    1
    63    26    63    1
    64    26    64    1
    65    27    28    1
    66    27    65    1
    67    28    66    1
    68    29    31   ar
    69    29    67    1
    70    30    68    1
    71    31    33   ar
    72    31    69    1
    73    32    34    1
    74    32    70    1
    75    34    35    1
    76    34    71    1
    77    35    37    1
    78    35    72    1
    79    36    37    1
    80    36    38    1
    81    36    73    1
    82    37    74    1
    83    38    76    1
    84    38    77    1
    85    38    78    1
