@<TRIPOS>MOLECULE
IMPHY015833
 43 45 0 0 0
SMALL
GASTEIGER

@<TRIPOS>ATOM
      1 O           2.0000   -1.5663    0.0000 O.3     1  UNL1       -0.3647
      2 O          10.7152   -0.2530    0.0000 O.3     1  UNL1       -0.4647
      3 O           9.8492    1.2470    0.0000 O.2     1  UNL1       -0.2453
      4 C           4.1201   -0.2618    0.0000 C.3     1  UNL1       -0.0038
      5 C           5.5190   -0.2530    0.0000 C.3     1  UNL1       -0.0233
      6 C           2.8991   -1.1275    0.0000 C.3     1  UNL1        0.0965
      7 C           4.3789    0.7041    0.0000 C.3     1  UNL1       -0.0325
      8 C           2.0700   -0.5683    0.0000 C.3     1  UNL1        0.0887
      9 C           3.6423    1.6867    0.0000 C.3     1  UNL1       -0.0436
     10 C           2.3457    0.3930    0.0000 C.3     1  UNL1       -0.0205
     11 C           6.3851    0.2470    0.0000 C.3     1  UNL1       -0.0436
     12 C           6.0190   -1.1191    0.0000 C.3     1  UNL1       -0.0590
     13 C           3.7281   -1.6867    0.0000 C.3     1  UNL1       -0.0331
     14 C           7.2511   -0.2530    0.0000 C.3     1  UNL1       -0.0335
     15 C           8.1171    0.2470    0.0000 C.2     1  UNL1       -0.0743
     16 C           8.9831   -0.2530    0.0000 C.2     1  UNL1        0.0296
     17 C           8.9831   -1.2530    0.0000 C.3     1  UNL1       -0.0332
     18 C           9.8492    0.2470    0.0000 C.2     1  UNL1        0.3343
     19 C          11.5812    0.2470    0.0000 C.3     1  UNL1        0.0820
     20 H           3.9001   -1.0829    0.0000 H       1  UNL1        0.0335
     21 H           4.5989    1.5251    0.0000 H       1  UNL1        0.0307
     22 H           1.4595   -0.4606    0.0000 H       1  UNL1        0.0625
     23 H           3.9601    2.2191    0.0000 H       1  UNL1        0.0272
     24 H           3.0292    1.7786    0.0000 H       1  UNL1        0.0272
     25 H           2.3406    1.0129    0.0000 H       1  UNL1        0.0294
     26 H           1.7314    0.4767    0.0000 H       1  UNL1        0.0294
     27 H           6.7836    0.7219    0.0000 H       1  UNL1        0.0274
     28 H           5.9865    0.7219    0.0000 H       1  UNL1        0.0274
     29 H           5.4821   -1.4290    0.0000 H       1  UNL1        0.0235
     30 H           6.3290   -1.6560    0.0000 H       1  UNL1        0.0235
     31 H           6.5560   -0.8090    0.0000 H       1  UNL1        0.0235
     32 H           3.3814   -2.2007    0.0000 H       1  UNL1        0.0258
     33 H           4.2421   -2.0334    0.0000 H       1  UNL1        0.0258
     34 H           4.0748   -1.1727    0.0000 H       1  UNL1        0.0258
     35 H           6.8526   -0.7280    0.0000 H       1  UNL1        0.0308
     36 H           7.6496   -0.7280    0.0000 H       1  UNL1        0.0308
     37 H           8.1171    0.8670    0.0000 H       1  UNL1        0.0577
     38 H           8.3631   -1.2530    0.0000 H       1  UNL1        0.0280
     39 H           8.9831   -1.8730    0.0000 H       1  UNL1        0.0280
     40 H           9.6031   -1.2530    0.0000 H       1  UNL1        0.0280
     41 H          11.8912   -0.2900    0.0000 H       1  UNL1        0.0661
     42 H          12.1182    0.5570    0.0000 H       1  UNL1        0.0661
     43 H          11.2712    0.7839    0.0000 H       1  UNL1        0.0661
@<TRIPOS>BOND
     1     1     6    1
     2     1     8    1
     3     2    18    1
     4     2    19    1
     5     3    18    2
     6     4     5    1
     7     4     6    1
     8     4     9    1
     9     4    20    1
    10     5     7    1
    11     5    11    1
    12     5    12    1
    13     6     8    1
    14     6    13    1
    15     7     9    1
    16     7    10    1
    17     7    21    1
    18     8    10    1
    19     8    22    1
    20     9    23    1
    21     9    24    1
    22    10    25    1
    23    10    26    1
    24    11    14    1
    25    11    27    1
    26    11    28    1
    27    12    29    1
    28    12    30    1
    29    12    31    1
    30    13    32    1
    31    13    33    1
    32    13    34    1
    33    14    15    1
    34    14    35    1
    35    14    36    1
    36    15    16    2
    37    15    37    1
    38    16    17    1
    39    16    18    1
    40    17    38    1
    41    17    39    1
    42    17    40    1
    43    19    41    1
    44    19    42    1
    45    19    43    1
