@<TRIPOS>MOLECULE
IMPHY009789
 20 21 0 0 0
SMALL
GASTEIGER

@<TRIPOS>ATOM
      1 N           2.8660   -1.3623    0.0000 N.pl3   1  UNL1       -0.3575
      2 C           3.7320    0.1377    0.0000 C.ar    1  UNL1        0.0028
      3 C           3.7320    1.1377    0.0000 C.ar    1  UNL1       -0.0161
      4 C           2.8660   -0.3623    0.0000 C.ar    1  UNL1        0.0323
      5 C           4.6260   -0.3970    0.0000 C.ar    1  UNL1       -0.0523
      6 C           2.8660    1.6377    0.0000 C.ar    1  UNL1       -0.0539
      7 C           4.6260    1.6723    0.0000 C.ar    1  UNL1       -0.0540
      8 C           2.0000    0.1377    0.0000 C.ar    1  UNL1       -0.0404
      9 C           2.0000    1.1377    0.0000 C.ar    1  UNL1       -0.0594
     10 C           5.5321    0.1169    0.0000 C.ar    1  UNL1       -0.0611
     11 C           5.5321    1.1585    0.0000 C.ar    1  UNL1       -0.0612
     12 H           4.6188   -1.0170    0.0000 H       1  UNL1        0.0624
     13 H           2.8660    2.2577    0.0000 H       1  UNL1        0.0624
     14 H           4.6188    2.2923    0.0000 H       1  UNL1        0.0624
     15 H           1.4631   -0.1723    0.0000 H       1  UNL1        0.0636
     16 H           1.4631    1.4477    0.0000 H       1  UNL1        0.0618
     17 H           6.0678   -0.1952    0.0000 H       1  UNL1        0.0618
     18 H           6.0678    1.4706    0.0000 H       1  UNL1        0.0618
     19 H           2.3291   -1.6723    0.0000 H       1  UNL1        0.1423
     20 H           3.4030   -1.6723    0.0000 H       1  UNL1        0.1423
@<TRIPOS>BOND
     1     1     4    1
     2     1    19    1
     3     1    20    1
     4     2     3   ar
     5     2     4   ar
     6     2     5   ar
     7     3     6   ar
     8     3     7   ar
     9     4     8   ar
    10     5    10   ar
    11     5    12    1
    12     6     9   ar
    13     6    13    1
    14     7    11   ar
    15     7    14    1
    16     8     9   ar
    17     8    15    1
    18     9    16    1
    19    10    11   ar
    20    10    17    1
    21    11    18    1
