@<TRIPOS>MOLECULE
IMPHY003430
 56 58 0 0 0
SMALL
GASTEIGER

@<TRIPOS>ATOM
      1 O           6.0290   -0.1897    0.0000 O.3     1  UNL1       -0.4823
      2 O           6.0174    2.8796    0.0000 O.2     1  UNL1       -0.2917
      3 O           6.9273   -1.6758    0.0000 O.3     1  UNL1       -0.4945
      4 O           8.6709    1.3175    0.0000 O.3     1  UNL1       -0.4945
      5 O           4.2690    2.8450    0.0000 O.3     1  UNL1       -0.5058
      6 O           2.5369   -0.1550    0.0000 O.3     1  UNL1       -0.5062
      7 O          10.3914   -1.6892    0.0000 O.3     1  UNL1       -0.4949
      8 C           6.9350    0.3242    0.0000 C.3     1  UNL1        0.1390
      9 C           6.9350    1.3658    0.0000 C.3     1  UNL1        0.0522
     10 C           5.1350    0.3450    0.0000 C.ar    1  UNL1        0.1423
     11 C           7.7991   -0.1792    0.0000 C.ar    1  UNL1        0.0764
     12 C           5.1350    1.3450    0.0000 C.ar    1  UNL1        0.1009
     13 C           6.0290    1.8797    0.0000 C.2     1  UNL1        0.1740
     14 C           4.2690   -0.1550    0.0000 C.ar    1  UNL1        0.0403
     15 C           4.2690    1.8450    0.0000 C.ar    1  UNL1        0.1343
     16 C           7.7953   -1.1791    0.0000 C.ar    1  UNL1        0.1338
     17 C           8.6671    0.3175    0.0000 C.ar    1  UNL1        0.1338
     18 C           4.2690   -1.1550    0.0000 C.3     1  UNL1       -0.0023
     19 C           3.4030    0.3450    0.0000 C.ar    1  UNL1        0.1273
     20 C           3.4030    1.3450    0.0000 C.ar    1  UNL1        0.0225
     21 C           8.6594   -1.6825    0.0000 C.ar    1  UNL1        0.0224
     22 C           9.5312   -0.1858    0.0000 C.ar    1  UNL1        0.0224
     23 C           9.5273   -1.1858    0.0000 C.ar    1  UNL1        0.1271
     24 C           3.4030   -1.6550    0.0000 C.2     1  UNL1       -0.0807
     25 C           3.4030   -2.6550    0.0000 C.2     1  UNL1       -0.0793
     26 C           6.9235   -2.6758    0.0000 C.3     1  UNL1        0.0788
     27 C           9.5389    1.8142    0.0000 C.3     1  UNL1        0.0788
     28 C           2.5369   -3.1550    0.0000 C.3     1  UNL1       -0.0440
     29 C           4.2690   -3.1550    0.0000 C.3     1  UNL1       -0.0440
     30 C          11.2593   -1.1925    0.0000 C.3     1  UNL1        0.0788
     31 H           7.4726    0.6331    0.0000 H       1  UNL1        0.0791
     32 H           7.5459    1.2597    0.0000 H       1  UNL1        0.0385
     33 H           7.1441    1.9495    0.0000 H       1  UNL1        0.0385
     34 H           4.4810   -1.7376    0.0000 H       1  UNL1        0.0358
     35 H           4.8796   -1.0473    0.0000 H       1  UNL1        0.0358
     36 H           2.8660    1.6550    0.0000 H       1  UNL1        0.0691
     37 H           8.6570   -2.3025    0.0000 H       1  UNL1        0.0691
     38 H          10.0693    0.1221    0.0000 H       1  UNL1        0.0691
     39 H           2.8660   -1.3450    0.0000 H       1  UNL1        0.0575
     40 H           3.7320    3.1550    0.0000 H       1  UNL1        0.2922
     41 H           2.0000    0.1550    0.0000 H       1  UNL1        0.2921
     42 H           6.3035   -2.6734    0.0000 H       1  UNL1        0.0660
     43 H           6.9211   -3.2958    0.0000 H       1  UNL1        0.0660
     44 H           7.5434   -2.6782    0.0000 H       1  UNL1        0.0660
     45 H           9.8468    1.2760    0.0000 H       1  UNL1        0.0660
     46 H          10.0770    2.1221    0.0000 H       1  UNL1        0.0660
     47 H           9.2309    2.3523    0.0000 H       1  UNL1        0.0660
     48 H           2.2269   -2.6181    0.0000 H       1  UNL1        0.0274
     49 H           2.0000   -3.4650    0.0000 H       1  UNL1        0.0274
     50 H           3.9590   -3.6919    0.0000 H       1  UNL1        0.0274
     51 H           4.8059   -3.4650    0.0000 H       1  UNL1        0.0274
     52 H           4.5790   -2.6181    0.0000 H       1  UNL1        0.0274
     53 H           2.8469   -3.6919    0.0000 H       1  UNL1        0.0274
     54 H          11.5673   -1.7306    0.0000 H       1  UNL1        0.0660
     55 H          11.7975   -0.8846    0.0000 H       1  UNL1        0.0660
     56 H          10.9514   -0.6544    0.0000 H       1  UNL1        0.0660
@<TRIPOS>BOND
     1     1     8    1
     2     1    10    1
     3     2    13    2
     4     3    16    1
     5     3    26    1
     6     4    17    1
     7     4    27    1
     8     5    15    1
     9     5    40    1
    10     6    19    1
    11     6    41    1
    12     7    23    1
    13     7    30    1
    14     8     9    1
    15     8    11    1
    16     8    31    1
    17     9    13    1
    18     9    32    1
    19     9    33    1
    20    10    12   ar
    21    10    14   ar
    22    11    16   ar
    23    11    17   ar
    24    12    13    1
    25    12    15   ar
    26    14    18    1
    27    14    19   ar
    28    15    20   ar
    29    16    21   ar
    30    17    22   ar
    31    18    24    1
    32    18    34    1
    33    18    35    1
    34    19    20   ar
    35    20    36    1
    36    21    23   ar
    37    21    37    1
    38    22    23   ar
    39    22    38    1
    40    24    25    2
    41    24    39    1
    42    25    28    1
    43    25    29    1
    44    26    42    1
    45    26    43    1
    46    26    44    1
    47    27    45    1
    48    27    46    1
    49    27    47    1
    50    28    48    1
    51    28    49    1
    52    28    53    1
    53    29    50    1
    54    29    51    1
    55    29    52    1
    56    30    54    1
    57    30    55    1
    58    30    56    1
