@<TRIPOS>MOLECULE
IMPHY005485
 25 24 0 0 0
SMALL
GASTEIGER

@<TRIPOS>ATOM
      1 S           5.1350   -1.0950    0.0000 S.3     1  UNL1       -0.1745
      2 O           2.5369    0.4050    0.0000 O.3     1  UNL1       -0.3950
      3 C           6.0010    0.4050    0.0000 C.3     1  UNL1       -0.0324
      4 C           5.1350   -0.0950    0.0000 C.3     1  UNL1        0.0069
      5 C           6.8671   -0.0950    0.0000 C.3     1  UNL1       -0.0523
      6 C           4.2690    0.4050    0.0000 C.3     1  UNL1       -0.0178
      7 C           6.0010    1.4050    0.0000 C.3     1  UNL1       -0.0614
      8 C           3.4030   -0.0950    0.0000 C.3     1  UNL1        0.0452
      9 C           7.7331    0.4050    0.0000 C.3     1  UNL1       -0.0650
     10 H           6.5380    0.7150    0.0000 H       1  UNL1        0.0309
     11 H           5.6720   -0.4050    0.0000 H       1  UNL1        0.0413
     12 H           6.4685   -0.5699    0.0000 H       1  UNL1        0.0266
     13 H           7.2656   -0.5699    0.0000 H       1  UNL1        0.0266
     14 H           4.6675    0.8799    0.0000 H       1  UNL1        0.0298
     15 H           3.8705    0.8799    0.0000 H       1  UNL1        0.0298
     16 H           6.6210    1.4050    0.0000 H       1  UNL1        0.0233
     17 H           6.0010    2.0250    0.0000 H       1  UNL1        0.0233
     18 H           5.3810    1.4050    0.0000 H       1  UNL1        0.0233
     19 H           3.0044   -0.5699    0.0000 H       1  UNL1        0.0557
     20 H           3.8015   -0.5699    0.0000 H       1  UNL1        0.0557
     21 H           8.0431   -0.1319    0.0000 H       1  UNL1        0.0230
     22 H           8.2700    0.7150    0.0000 H       1  UNL1        0.0230
     23 H           7.4231    0.9419    0.0000 H       1  UNL1        0.0230
     24 H           4.5981   -1.4050    0.0000 H       1  UNL1        0.1019
     25 H           2.0000    0.0950    0.0000 H       1  UNL1        0.2094
@<TRIPOS>BOND
     1     1     4    1
     2     1    24    1
     3     2     8    1
     4     2    25    1
     5     3     4    1
     6     3     5    1
     7     3     7    1
     8     3    10    1
     9     4     6    1
    10     4    11    1
    11     5     9    1
    12     5    12    1
    13     5    13    1
    14     6     8    1
    15     6    14    1
    16     6    15    1
    17     7    16    1
    18     7    17    1
    19     7    18    1
    20     8    19    1
    21     8    20    1
    22     9    21    1
    23     9    22    1
    24     9    23    1
