@<TRIPOS>MOLECULE
IMPHY017103
 13 12 0 0 0
SMALL
GASTEIGER

@<TRIPOS>ATOM
      1 S           4.5981    0.2500    0.0000 S.3     1  UNL1       -0.1367
      2 C           2.8660    0.2500    0.0000 C.2     1  UNL1       -0.0809
      3 C           2.0000   -0.2500    0.0000 C.3     1  UNL1       -0.0461
      4 C           3.7320   -0.2500    0.0000 C.2     1  UNL1       -0.0331
      5 C           5.4641   -0.2500    0.0000 C.3     1  UNL1       -0.0140
      6 H           2.8660    0.8700    0.0000 H       1  UNL1        0.0574
      7 H           1.6900    0.2869    0.0000 H       1  UNL1        0.0272
      8 H           1.4631   -0.5600    0.0000 H       1  UNL1        0.0272
      9 H           2.3100   -0.7869    0.0000 H       1  UNL1        0.0272
     10 H           3.7320   -0.8700    0.0000 H       1  UNL1        0.0687
     11 H           5.1541   -0.7869    0.0000 H       1  UNL1        0.0344
     12 H           6.0010   -0.5600    0.0000 H       1  UNL1        0.0344
     13 H           5.7741    0.2869    0.0000 H       1  UNL1        0.0344
@<TRIPOS>BOND
     1     1     4    1
     2     1     5    1
     3     2     3    1
     4     2     4    2
     5     2     6    1
     6     3     7    1
     7     3     8    1
     8     3     9    1
     9     4    10    1
    10     5    11    1
    11     5    12    1
    12     5    13    1
