@<TRIPOS>MOLECULE
IMPHY016597
 39 42 0 0 0
SMALL
GASTEIGER

@<TRIPOS>ATOM
      1 C           3.6499    0.1333    0.0000 C.3     1  UNL1       -0.0141
      2 C           4.5159   -0.3667    0.0000 C.3     1  UNL1       -0.0141
      3 C           3.6496   -0.8672    0.0000 C.3     1  UNL1       -0.0274
      4 C           2.9128   -0.5338    0.0000 C.3     1  UNL1       -0.0256
      5 C           3.3180   -1.4416    0.0000 C.3     1  UNL1       -0.0345
      6 C           4.3067   -1.3385    0.0000 C.3     1  UNL1       -0.0427
      7 C           4.3132   -1.6333    0.0000 C.3     1  UNL1       -0.0458
      8 C           5.3819    0.1333    0.0000 C.3     1  UNL1       -0.0284
      9 C           3.6499    1.1333    0.0000 C.3     1  UNL1       -0.0461
     10 C           5.3819    1.1333    0.0000 C.3     1  UNL1       -0.0473
     11 C           4.5159    1.6333    0.0000 C.3     1  UNL1       -0.0520
     12 C           2.0000   -0.9421    0.0000 C.3     1  UNL1       -0.0590
     13 C           2.2424    0.2082    0.0000 C.3     1  UNL1       -0.0590
     14 C           6.3819    0.1333    0.0000 C.3     1  UNL1       -0.0593
     15 C           5.8819   -0.7328    0.0000 C.3     1  UNL1       -0.0593
     16 H           3.0686   -1.0837    0.0000 H       1  UNL1        0.0312
     17 H           2.9326   -1.9273    0.0000 H       1  UNL1        0.0306
     18 H           4.3058   -1.9585    0.0000 H       1  UNL1        0.0274
     19 H           4.9232   -1.4046    0.0000 H       1  UNL1        0.0274
     20 H           4.3820   -2.2494    0.0000 H       1  UNL1        0.0271
     21 H           4.8812   -1.3847    0.0000 H       1  UNL1        0.0271
     22 H           3.4378    1.7159    0.0000 H       1  UNL1        0.0271
     23 H           3.0393    1.0256    0.0000 H       1  UNL1        0.0271
     24 H           5.9925    1.0256    0.0000 H       1  UNL1        0.0271
     25 H           5.5940    1.7159    0.0000 H       1  UNL1        0.0271
     26 H           4.9144    2.1082    0.0000 H       1  UNL1        0.0266
     27 H           4.1174    2.1082    0.0000 H       1  UNL1        0.0266
     28 H           1.7468   -0.3762    0.0000 H       1  UNL1        0.0235
     29 H           1.4340   -1.1953    0.0000 H       1  UNL1        0.0235
     30 H           2.2532   -1.5081    0.0000 H       1  UNL1        0.0235
     31 H           2.7025    0.6238    0.0000 H       1  UNL1        0.0235
     32 H           1.8268    0.6682    0.0000 H       1  UNL1        0.0235
     33 H           1.7824   -0.2075    0.0000 H       1  UNL1        0.0235
     34 H           6.3819   -0.4867    0.0000 H       1  UNL1        0.0235
     35 H           7.0019    0.1333    0.0000 H       1  UNL1        0.0235
     36 H           6.3819    0.7533    0.0000 H       1  UNL1        0.0235
     37 H           5.3450   -1.0428    0.0000 H       1  UNL1        0.0235
     38 H           6.1919   -1.2697    0.0000 H       1  UNL1        0.0235
     39 H           6.4188   -0.4228    0.0000 H       1  UNL1        0.0235
@<TRIPOS>BOND
     1     1     2    1
     2     1     3    1
     3     1     4    1
     4     1     9    1
     5     2     3    1
     6     2     6    1
     7     2     8    1
     8     3     7    1
     9     3    16    1
    10     4     5    1
    11     4    12    1
    12     4    13    1
    13     5     6    1
    14     5     7    1
    15     5    17    1
    16     6    18    1
    17     6    19    1
    18     7    20    1
    19     7    21    1
    20     8    10    1
    21     8    14    1
    22     8    15    1
    23     9    11    1
    24     9    22    1
    25     9    23    1
    26    10    11    1
    27    10    24    1
    28    10    25    1
    29    11    26    1
    30    11    27    1
    31    12    28    1
    32    12    29    1
    33    12    30    1
    34    13    31    1
    35    13    32    1
    36    13    33    1
    37    14    34    1
    38    14    35    1
    39    14    36    1
    40    15    37    1
    41    15    38    1
    42    15    39    1
