@<TRIPOS>MOLECULE
IMPHY005668
 47 49 0 0 0
SMALL
GASTEIGER

@<TRIPOS>ATOM
      1 O           7.2909   -0.3888    0.0000 O.3     1  UNL1       -0.4573
      2 O           9.9774   -2.0748    0.0000 O.3     1  UNL1       -0.4676
      3 O           8.2464   -2.1353    0.0000 O.2     1  UNL1       -0.2504
      4 O           6.6985    1.2388    0.0000 O.2     1  UNL1       -0.2456
      5 N           9.8028    2.2082    0.0000 N.3     1  UNL1       -0.2984
      6 C          10.2806    0.2597    0.0000 C.3     1  UNL1        0.0268
      7 C          10.5394    1.2256    0.0000 C.3     1  UNL1        0.0138
      8 C           9.0596   -0.6060    0.0000 C.3     1  UNL1        0.1087
      9 C          11.6796   -0.2491    0.0000 C.3     1  UNL1       -0.0350
     10 C          11.9384    0.7168    0.0000 C.3     1  UNL1       -0.0358
     11 C           8.5062    0.9145    0.0000 C.3     1  UNL1        0.0008
     12 C           8.2305   -0.0468    0.0000 C.3     1  UNL1        0.1191
     13 C           9.3028    3.0742    0.0000 C.3     1  UNL1       -0.0122
     14 C           9.0945   -1.6054    0.0000 C.2     1  UNL1        0.3150
     15 C           6.5248    0.2540    0.0000 C.2     1  UNL1        0.3322
     16 C          10.0123   -3.0742    0.0000 C.3     1  UNL1        0.0817
     17 C           5.5851   -0.0880    0.0000 C.2     1  UNL1        0.0231
     18 C           4.8191    0.5547    0.0000 C.2     1  UNL1       -0.0478
     19 C           3.8794    0.2127    0.0000 C.ar    1  UNL1       -0.0248
     20 C           3.1133    0.8555    0.0000 C.ar    1  UNL1       -0.0546
     21 C           3.7057   -0.7721    0.0000 C.ar    1  UNL1       -0.0546
     22 C           2.1736    0.5135    0.0000 C.ar    1  UNL1       -0.0612
     23 C           2.7660   -1.1141    0.0000 C.ar    1  UNL1       -0.0612
     24 C           2.0000   -0.4713    0.0000 C.ar    1  UNL1       -0.0617
     25 H          10.3634   -0.3548    0.0000 H       1  UNL1        0.0472
     26 H          10.9088    1.7236    0.0000 H       1  UNL1        0.0464
     27 H           8.5173   -0.9066    0.0000 H       1  UNL1        0.0466
     28 H          11.4846   -0.8377    0.0000 H       1  UNL1        0.0281
     29 H          12.2735   -0.4269    0.0000 H       1  UNL1        0.0281
     30 H          12.5323    0.5390    0.0000 H       1  UNL1        0.0281
     31 H          12.1333    1.3053    0.0000 H       1  UNL1        0.0281
     32 H           8.5011    1.5345    0.0000 H       1  UNL1        0.0316
     33 H           7.8919    0.9983    0.0000 H       1  UNL1        0.0316
     34 H           7.7771    0.3760    0.0000 H       1  UNL1        0.0743
     35 H           9.8398    3.3842    0.0000 H       1  UNL1        0.0391
     36 H           8.9928    3.6112    0.0000 H       1  UNL1        0.0391
     37 H           8.7659    2.7642    0.0000 H       1  UNL1        0.0391
     38 H           9.3927   -3.0959    0.0000 H       1  UNL1        0.0661
     39 H          10.0340   -3.6939    0.0000 H       1  UNL1        0.0661
     40 H          10.6320   -3.0526    0.0000 H       1  UNL1        0.0661
     41 H           5.4775   -0.6986    0.0000 H       1  UNL1        0.0689
     42 H           4.9267    1.1653    0.0000 H       1  UNL1        0.0626
     43 H           3.2210    1.4661    0.0000 H       1  UNL1        0.0623
     44 H           4.1807   -1.1706    0.0000 H       1  UNL1        0.0623
     45 H           1.6987    0.9120    0.0000 H       1  UNL1        0.0618
     46 H           2.6584   -1.7247    0.0000 H       1  UNL1        0.0618
     47 H           1.4174   -0.6834    0.0000 H       1  UNL1        0.0618
@<TRIPOS>BOND
     1     1    12    1
     2     1    15    1
     3     2    14    1
     4     2    16    1
     5     3    14    2
     6     4    15    2
     7     5     6    1
     8     5     7    1
     9     5    13    1
    10     6     8    1
    11     6     9    1
    12     6    25    1
    13     7    10    1
    14     7    11    1
    15     7    26    1
    16     8    12    1
    17     8    14    1
    18     8    27    1
    19     9    10    1
    20     9    28    1
    21     9    29    1
    22    10    30    1
    23    10    31    1
    24    11    12    1
    25    11    32    1
    26    11    33    1
    27    12    34    1
    28    13    35    1
    29    13    36    1
    30    13    37    1
    31    15    17    1
    32    16    38    1
    33    16    39    1
    34    16    40    1
    35    17    18    2
    36    17    41    1
    37    18    19    1
    38    18    42    1
    39    19    20   ar
    40    19    21   ar
    41    20    22   ar
    42    20    43    1
    43    21    23   ar
    44    21    44    1
    45    22    24   ar
    46    22    45    1
    47    23    24   ar
    48    23    46    1
    49    24    47    1
