@<TRIPOS>MOLECULE
IMPHY006504
 163 172 0 0 0
SMALL
GASTEIGER

@<TRIPOS>ATOM
      1 O          13.5719    4.8469    0.0000 O.3     1  UNL1       -0.3679
      2 O          12.9292   -1.7536    0.0000 O.3     1  UNL1       -0.3448
      3 O          15.4124   -1.0392    0.0000 O.3     1  UNL1       -0.3944
      4 O          11.1972   -1.7536    0.0000 O.3     1  UNL1       -0.3405
      5 O          12.9292   -3.7536    0.0000 O.3     1  UNL1       -0.3841
      6 O          11.1972   -4.7536    0.0000 O.3     1  UNL1       -0.3401
      7 O           9.4651   -3.7536    0.0000 O.3     1  UNL1       -0.3865
      8 O           9.4651   -0.7536    0.0000 O.3     1  UNL1       -0.3461
      9 O           9.4651   -4.7536    0.0000 O.3     1  UNL1       -0.3431
     10 O          11.1972   -6.7536    0.0000 O.3     1  UNL1       -0.3841
     11 O           7.7331   -0.7536    0.0000 O.3     1  UNL1       -0.3431
     12 O           9.4651   -7.7536    0.0000 O.3     1  UNL1       -0.3864
     13 O           7.7331   -6.7536    0.0000 O.3     1  UNL1       -0.3866
     14 O           9.4651    1.2464    0.0000 O.3     1  UNL1       -0.3841
     15 O           7.7331    2.2464    0.0000 O.3     1  UNL1       -0.3864
     16 O           6.0010    1.2464    0.0000 O.3     1  UNL1       -0.3402
     17 O           5.1350   -0.2536    0.0000 O.3     1  UNL1       -0.3405
     18 O           4.2690    2.2464    0.0000 O.3     1  UNL1       -0.3841
     19 O           2.5369    1.2464    0.0000 O.3     1  UNL1       -0.3864
     20 O           2.5369   -0.7536    0.0000 O.3     1  UNL1       -0.3865
     21 O           3.4030   -2.2536    0.0000 O.3     1  UNL1       -0.3924
     22 C          13.8558    4.1422    0.0000 C.3     1  UNL1        0.0068
     23 C          12.9917    4.6456    0.0000 C.3     1  UNL1        0.0968
     24 C          13.8678    3.1007    0.0000 C.3     1  UNL1       -0.0170
     25 C          12.9955    5.6456    0.0000 C.3     1  UNL1        0.0005
     26 C          13.8635    6.1422    0.0000 C.3     1  UNL1       -0.0000
     27 C          12.9677    2.5764    0.0000 C.3     1  UNL1       -0.0112
     28 C          12.9552    1.4915    0.0000 C.3     1  UNL1       -0.0217
     29 C          14.7237    4.6389    0.0000 C.3     1  UNL1       -0.0436
     30 C          14.7276    5.6389    0.0000 C.3     1  UNL1       -0.0443
     31 C          13.8927    0.9454    0.0000 C.3     1  UNL1       -0.0252
     32 C          14.8177    2.5764    0.0000 C.3     1  UNL1       -0.0462
     33 C          13.9745    5.5382    0.0000 C.3     1  UNL1        0.0548
     34 C          12.0875    6.1559    0.0000 C.3     1  UNL1       -0.0415
     35 C          13.8836    7.1837    0.0000 C.3     1  UNL1       -0.0444
     36 C          12.0797    4.1422    0.0000 C.2     1  UNL1       -0.0554
     37 C          14.8303    1.4915    0.0000 C.3     1  UNL1       -0.0485
     38 C          14.8399    3.9648    0.0000 C.3     1  UNL1       -0.0561
     39 C          12.0677    3.1007    0.0000 C.2     1  UNL1       -0.0811
     40 C          12.0835    7.1976    0.0000 C.3     1  UNL1       -0.0345
     41 C          13.9058   -0.1847    0.0000 C.3     1  UNL1        0.0206
     42 C          14.8519    3.2781    0.0000 C.3     1  UNL1       -0.0584
     43 C          11.9657    0.9454    0.0000 C.3     1  UNL1       -0.0444
     44 C          12.9876    7.7149    0.0000 C.3     1  UNL1       -0.0473
     45 C          12.0911    1.9948    0.0000 C.3     1  UNL1       -0.0587
     46 C          12.9292   -0.7536    0.0000 C.3     1  UNL1        0.0695
     47 C          11.9527   -0.1847    0.0000 C.3     1  UNL1       -0.0254
     48 C          14.9058   -0.1770    0.0000 C.3     1  UNL1        0.0522
     49 C          11.5835    8.0636    0.0000 C.3     1  UNL1       -0.0598
     50 C          11.0835    7.1976    0.0000 C.3     1  UNL1       -0.0598
     51 C          14.4125   -1.0469    0.0000 C.3     1  UNL1       -0.0548
     52 C          12.0632   -2.2536    0.0000 C.3     1  UNL1        0.1882
     53 C          12.0632   -3.2536    0.0000 C.3     1  UNL1        0.1345
     54 C          11.1972   -3.7536    0.0000 C.3     1  UNL1        0.1206
     55 C          10.3312   -2.2536    0.0000 C.3     1  UNL1        0.1134
     56 C          10.3312   -3.2536    0.0000 C.3     1  UNL1        0.1123
     57 C           9.4651   -1.7536    0.0000 C.3     1  UNL1        0.0796
     58 C          10.3312   -5.2536    0.0000 C.3     1  UNL1        0.1883
     59 C          10.3312   -6.2536    0.0000 C.3     1  UNL1        0.1341
     60 C           8.5991   -0.2536    0.0000 C.3     1  UNL1        0.1879
     61 C           9.4651   -6.7536    0.0000 C.3     1  UNL1        0.1140
     62 C           8.5991   -5.2536    0.0000 C.3     1  UNL1        0.0873
     63 C           8.5991   -6.2536    0.0000 C.3     1  UNL1        0.1095
     64 C           8.5991    0.7464    0.0000 C.3     1  UNL1        0.1341
     65 C           7.7331    1.2464    0.0000 C.3     1  UNL1        0.1143
     66 C           7.7331   -4.7536    0.0000 C.3     1  UNL1       -0.0361
     67 C           6.8671   -0.2536    0.0000 C.3     1  UNL1        0.0877
     68 C           6.8671    0.7464    0.0000 C.3     1  UNL1        0.1160
     69 C           6.0010   -0.7536    0.0000 C.3     1  UNL1       -0.0361
     70 C           5.1350    0.7464    0.0000 C.3     1  UNL1        0.1884
     71 C           4.2690    1.2464    0.0000 C.3     1  UNL1        0.1341
     72 C           3.4030    0.7464    0.0000 C.3     1  UNL1        0.1141
     73 C           4.2690   -0.7536    0.0000 C.3     1  UNL1        0.1130
     74 C           3.4030   -0.2536    0.0000 C.3     1  UNL1        0.1119
     75 C           4.2690   -1.7536    0.0000 C.3     1  UNL1        0.0730
     76 H          12.2578    5.2234    0.0000 H       1  UNL1        0.0338
     77 H          12.2284    2.1571    0.0000 H       1  UNL1        0.0354
     78 H          14.9335    4.0555    0.0000 H       1  UNL1        0.0272
     79 H          15.3347    4.7442    0.0000 H       1  UNL1        0.0272
     80 H          15.3377    5.5289    0.0000 H       1  UNL1        0.0272
     81 H          14.9419    6.2207    0.0000 H       1  UNL1        0.0272
     82 H          14.6321    0.5261    0.0000 H       1  UNL1        0.0313
     83 H          15.4298    2.4774    0.0000 H       1  UNL1        0.0271
     84 H          15.0200    3.1625    0.0000 H       1  UNL1        0.0271
     85 H          14.4000    5.0872    0.0000 H       1  UNL1        0.0566
     86 H          14.5276    5.8185    0.0000 H       1  UNL1        0.0566
     87 H          11.4762    6.2597    0.0000 H       1  UNL1        0.0274
     88 H          11.8807    5.5714    0.0000 H       1  UNL1        0.0274
     89 H          14.4922    7.0658    0.0000 H       1  UNL1        0.0272
     90 H          14.1038    7.7632    0.0000 H       1  UNL1        0.0272
     91 H          11.5476    4.4605    0.0000 H       1  UNL1        0.0598
     92 H          15.0461    0.9102    0.0000 H       1  UNL1        0.0268
     93 H          15.4399    1.6046    0.0000 H       1  UNL1        0.0268
     94 H          14.7299    3.3546    0.0000 H       1  UNL1        0.0236
     95 H          15.4501    3.8548    0.0000 H       1  UNL1        0.0236
     96 H          14.9499    4.5750    0.0000 H       1  UNL1        0.0236
     97 H          11.5284    2.7948    0.0000 H       1  UNL1        0.0573
     98 H          14.9620    2.6680    0.0000 H       1  UNL1        0.0235
     99 H          15.4621    3.3882    0.0000 H       1  UNL1        0.0235
    100 H          14.7419    3.8883    0.0000 H       1  UNL1        0.0235
    101 H          11.7635    1.5314    0.0000 H       1  UNL1        0.0272
    102 H          11.3537    0.8463    0.0000 H       1  UNL1        0.0272
    103 H          13.3903    8.1862    0.0000 H       1  UNL1        0.0271
    104 H          12.5921    8.1924    0.0000 H       1  UNL1        0.0271
    105 H          12.4032    2.5306    0.0000 H       1  UNL1        0.0235
    106 H          11.5554    2.3069    0.0000 H       1  UNL1        0.0235
    107 H          11.7790    1.4591    0.0000 H       1  UNL1        0.0235
    108 H          13.4668   -1.0625    0.0000 H       1  UNL1        0.0603
    109 H          11.3431   -0.0716    0.0000 H       1  UNL1        0.0290
    110 H          11.7369   -0.7660    0.0000 H       1  UNL1        0.0290
    111 H          15.4867    0.0395    0.0000 H       1  UNL1        0.0563
    112 H          14.7934    0.4327    0.0000 H       1  UNL1        0.0563
    113 H          12.1204    8.3736    0.0000 H       1  UNL1        0.0235
    114 H          11.2735    8.6005    0.0000 H       1  UNL1        0.0235
    115 H          11.0465    7.7536    0.0000 H       1  UNL1        0.0235
    116 H          11.0835    7.8176    0.0000 H       1  UNL1        0.0235
    117 H          10.4635    7.1976    0.0000 H       1  UNL1        0.0235
    118 H          11.0835    6.5776    0.0000 H       1  UNL1        0.0235
    119 H          13.8779   -1.3610    0.0000 H       1  UNL1        0.0237
    120 H          14.7266   -1.5814    0.0000 H       1  UNL1        0.0237
    121 H          14.9470   -0.7327    0.0000 H       1  UNL1        0.0237
    122 H          16.0324   -1.0344    0.0000 H       1  UNL1        0.2094
    123 H          12.7993   -2.6786    0.0000 H       1  UNL1        0.0937
    124 H          12.0632   -4.1036    0.0000 H       1  UNL1        0.0671
    125 H          10.4611   -4.1786    0.0000 H       1  UNL1        0.0651
    126 H          10.3312   -1.4036    0.0000 H       1  UNL1        0.0647
    127 H           9.5950   -2.8286    0.0000 H       1  UNL1        0.0647
    128 H          12.9292   -4.3736    0.0000 H       1  UNL1        0.2101
    129 H           8.8546   -1.6459    0.0000 H       1  UNL1        0.0587
    130 H           9.2531   -2.3362    0.0000 H       1  UNL1        0.0587
    131 H           8.9282   -3.4436    0.0000 H       1  UNL1        0.2100
    132 H          10.3312   -4.4036    0.0000 H       1  UNL1        0.0938
    133 H          10.3312   -7.1036    0.0000 H       1  UNL1        0.0671
    134 H           8.5991   -1.1036    0.0000 H       1  UNL1        0.0937
    135 H           8.7290   -7.1786    0.0000 H       1  UNL1        0.0648
    136 H           8.5991   -4.4036    0.0000 H       1  UNL1        0.0621
    137 H           7.8630   -5.8286    0.0000 H       1  UNL1        0.0646
    138 H           8.5991    1.5964    0.0000 H       1  UNL1        0.0671
    139 H          11.1972   -7.3736    0.0000 H       1  UNL1        0.2101
    140 H           6.9970    1.6714    0.0000 H       1  UNL1        0.0648
    141 H           8.0431   -4.2166    0.0000 H       1  UNL1        0.0255
    142 H           7.1962   -4.4436    0.0000 H       1  UNL1        0.0255
    143 H           7.4231   -5.2905    0.0000 H       1  UNL1        0.0255
    144 H           6.8671   -1.1036    0.0000 H       1  UNL1        0.0621
    145 H           8.9282   -8.0636    0.0000 H       1  UNL1        0.2100
    146 H           6.1309    0.3214    0.0000 H       1  UNL1        0.0650
    147 H           7.1962   -6.4436    0.0000 H       1  UNL1        0.2100
    148 H           9.4651    1.8664    0.0000 H       1  UNL1        0.2101
    149 H           5.6910   -0.2166    0.0000 H       1  UNL1        0.0255
    150 H           5.4641   -1.0636    0.0000 H       1  UNL1        0.0255
    151 H           6.3110   -1.2905    0.0000 H       1  UNL1        0.0255
    152 H           7.1962    2.5564    0.0000 H       1  UNL1        0.2100
    153 H           5.1350    1.5964    0.0000 H       1  UNL1        0.0938
    154 H           3.5329    1.6714    0.0000 H       1  UNL1        0.0671
    155 H           4.1391    0.3214    0.0000 H       1  UNL1        0.0648
    156 H           5.0051   -1.1786    0.0000 H       1  UNL1        0.0647
    157 H           3.4030   -1.1036    0.0000 H       1  UNL1        0.0647
    158 H           3.7320    2.5564    0.0000 H       1  UNL1        0.2101
    159 H           4.4810   -2.3362    0.0000 H       1  UNL1        0.0584
    160 H           4.8796   -1.6459    0.0000 H       1  UNL1        0.0584
    161 H           2.0000    0.9364    0.0000 H       1  UNL1        0.2100
    162 H           2.0000   -0.4436    0.0000 H       1  UNL1        0.2100
    163 H           3.4030   -2.8736    0.0000 H       1  UNL1        0.2095
@<TRIPOS>BOND
     1     1    23    1
     2     1    33    1
     3    46     2    1
     4     2    52    1
     5     3    48    1
     6     3   122    1
     7     4    52    1
     8     4    55    1
     9     5    53    1
    10     5   128    1
    11     6    54    1
    12     6    58    1
    13     7    56    1
    14     7   131    1
    15     8    57    1
    16     8    60    1
    17     9    58    1
    18     9    62    1
    19    10    59    1
    20    10   139    1
    21    11    60    1
    22    11    67    1
    23    12    61    1
    24    12   145    1
    25    13    63    1
    26    13   147    1
    27    14    64    1
    28    14   148    1
    29    15    65    1
    30    15   152    1
    31    16    68    1
    32    16    70    1
    33    17    70    1
    34    17    73    1
    35    18    71    1
    36    18   158    1
    37    19    72    1
    38    19   161    1
    39    20    74    1
    40    20   162    1
    41    21    75    1
    42    21   163    1
    43    22    23    1
    44    22    24    1
    45    22    29    1
    46    22    38    1
    47    23    25    1
    48    23    36    1
    49    24    27    1
    50    24    32    1
    51    24    42    1
    52    25    26    1
    53    25    34    1
    54    25    76    1
    55    26    30    1
    56    26    33    1
    57    26    35    1
    58    27    28    1
    59    27    39    1
    60    27    77    1
    61    28    31    1
    62    28    43    1
    63    28    45    1
    64    29    30    1
    65    29    78    1
    66    29    79    1
    67    30    80    1
    68    30    81    1
    69    31    37    1
    70    31    41    1
    71    31    82    1
    72    32    37    1
    73    32    83    1
    74    32    84    1
    75    33    85    1
    76    33    86    1
    77    34    40    1
    78    34    87    1
    79    34    88    1
    80    35    44    1
    81    35    89    1
    82    35    90    1
    83    36    39    2
    84    36    91    1
    85    37    92    1
    86    37    93    1
    87    38    94    1
    88    38    95    1
    89    38    96    1
    90    39    97    1
    91    40    44    1
    92    40    49    1
    93    40    50    1
    94    41    46    1
    95    41    48    1
    96    41    51    1
    97    42    98    1
    98    42    99    1
    99    42   100    1
   100    43    47    1
   101    43   101    1
   102    43   102    1
   103    44   103    1
   104    44   104    1
   105    45   105    1
   106    45   106    1
   107    45   107    1
   108    46    47    1
   109    46   108    1
   110    47   109    1
   111    47   110    1
   112    48   111    1
   113    48   112    1
   114    49   113    1
   115    49   114    1
   116    49   115    1
   117    50   116    1
   118    50   117    1
   119    50   118    1
   120    51   119    1
   121    51   120    1
   122    51   121    1
   123    52    53    1
   124    52   123    1
   125    53    54    1
   126    53   124    1
   127    54    56    1
   128    54   125    1
   129    55    56    1
   130    55    57    1
   131    55   126    1
   132    56   127    1
   133    57   129    1
   134    57   130    1
   135    58    59    1
   136    58   132    1
   137    59    61    1
   138    59   133    1
   139    60    64    1
   140    60   134    1
   141    61    63    1
   142    61   135    1
   143    62    63    1
   144    62    66    1
   145    62   136    1
   146    63   137    1
   147    64    65    1
   148    64   138    1
   149    65    68    1
   150    65   140    1
   151    66   141    1
   152    66   142    1
   153    66   143    1
   154    67    68    1
   155    67    69    1
   156    67   144    1
   157    68   146    1
   158    69   149    1
   159    69   150    1
   160    69   151    1
   161    70    71    1
   162    70   153    1
   163    71    72    1
   164    71   154    1
   165    72    74    1
   166    72   155    1
   167    73    74    1
   168    73    75    1
   169    73   156    1
   170    74   157    1
   171    75   159    1
   172    75   160    1
