@<TRIPOS>MOLECULE
IMPHY017549
 18 19 0 0 0
SMALL
GASTEIGER

@<TRIPOS>ATOM
      1 O           2.0000   -0.7073    0.0000 O.2     1  UNL1       -0.2447
      2 N           3.7320   -0.7073    0.0000 N.ar    1  UNL1       -0.2893
      3 N           5.4920    1.3273    0.0000 N.ar    1  UNL1       -0.2458
      4 N           5.4920   -0.7420    0.0000 N.ar    1  UNL1       -0.2340
      5 N           2.8660    0.7927    0.0000 N.ar    1  UNL1       -0.1993
      6 C           4.5981   -0.2073    0.0000 C.ar    1  UNL1        0.1619
      7 C           4.5981    0.7927    0.0000 C.ar    1  UNL1        0.1245
      8 C           6.3981    0.8135    0.0000 C.ar    1  UNL1        0.0571
      9 C           3.7320    1.2927    0.0000 C.ar    1  UNL1        0.0619
     10 C           6.3981   -0.2281    0.0000 C.ar    1  UNL1        0.0509
     11 C           2.8660   -0.2073    0.0000 C.ar    1  UNL1        0.3474
     12 C           7.2622    1.3168    0.0000 C.3     1  UNL1       -0.0209
     13 H           3.7320   -1.3273    0.0000 H       1  UNL1        0.1720
     14 H           3.7320    1.9127    0.0000 H       1  UNL1        0.0854
     15 H           6.9338   -0.5402    0.0000 H       1  UNL1        0.0848
     16 H           7.5742    0.7811    0.0000 H       1  UNL1        0.0293
     17 H           7.7979    1.6289    0.0000 H       1  UNL1        0.0293
     18 H           6.9501    1.8526    0.0000 H       1  UNL1        0.0293
@<TRIPOS>BOND
     1     1    11    2
     2     2     6   ar
     3     2    11   ar
     4     2    13    1
     5     3     7   ar
     6     3     8   ar
     7     4     6   ar
     8     4    10   ar
     9     5     9   ar
    10     5    11   ar
    11     6     7   ar
    12     7     9   ar
    13     8    10   ar
    14     8    12    1
    15     9    14    1
    16    10    15    1
    17    12    16    1
    18    12    17    1
    19    12    18    1
