@<TRIPOS>MOLECULE
IMPHY017861
 57 58 0 0 0
SMALL
GASTEIGER

@<TRIPOS>ATOM
      1 O           3.5000   -3.0482    0.0000 O.3     1  UNL1       -0.3848
      2 C           5.2320    0.9518    0.0000 C.3     1  UNL1       -0.0257
      3 C           5.2320    1.9518    0.0000 C.3     1  UNL1       -0.0302
      4 C           4.3660    0.4518    0.0000 C.3     1  UNL1       -0.0327
      5 C           6.1260    2.4865    0.0000 C.3     1  UNL1       -0.0315
      6 C           6.1260    0.4171    0.0000 C.3     1  UNL1       -0.0471
      7 C           3.5000    0.9518    0.0000 C.3     1  UNL1       -0.0405
      8 C           4.3660    2.4518    0.0000 C.3     1  UNL1       -0.0490
      9 C           7.0321    1.9726    0.0000 C.3     1  UNL1       -0.0476
     10 C           3.5000    1.9518    0.0000 C.3     1  UNL1       -0.0499
     11 C           7.0321    0.9310    0.0000 C.3     1  UNL1       -0.0521
     12 C           5.2320   -0.0482    0.0000 C.3     1  UNL1       -0.0590
     13 C           4.3660   -0.5482    0.0000 C.3     1  UNL1       -0.0466
     14 C           6.6160    3.3582    0.0000 C.3     1  UNL1       -0.0595
     15 C           5.6160    3.3466    0.0000 C.3     1  UNL1       -0.0595
     16 C           2.6340    0.4518    0.0000 C.3     1  UNL1       -0.0621
     17 C           3.5000   -1.0482    0.0000 C.3     1  UNL1       -0.0204
     18 C           3.5000   -2.0482    0.0000 C.3     1  UNL1        0.0811
     19 C           4.5000   -2.0482    0.0000 C.3     1  UNL1       -0.0325
     20 C           2.5000   -2.0482    0.0000 C.2     1  UNL1       -0.0602
     21 C           2.0000   -2.9142    0.0000 C.2     1  UNL1       -0.1000
     22 H           5.2273    2.5718    0.0000 H       1  UNL1        0.0311
     23 H           3.8291    0.1418    0.0000 H       1  UNL1        0.0309
     24 H           5.7214   -0.0527    0.0000 H       1  UNL1        0.0271
     25 H           6.5196   -0.0619    0.0000 H       1  UNL1        0.0271
     26 H           2.9631    1.2618    0.0000 H       1  UNL1        0.0301
     27 H           4.7646    2.9267    0.0000 H       1  UNL1        0.0268
     28 H           3.9675    2.9267    0.0000 H       1  UNL1        0.0268
     29 H           7.6429    1.8665    0.0000 H       1  UNL1        0.0271
     30 H           7.2411    2.5563    0.0000 H       1  UNL1        0.0271
     31 H           3.2880    2.5344    0.0000 H       1  UNL1        0.0268
     32 H           2.8894    1.8441    0.0000 H       1  UNL1        0.0268
     33 H           7.2411    0.3473    0.0000 H       1  UNL1        0.0266
     34 H           7.6429    1.0371    0.0000 H       1  UNL1        0.0266
     35 H           4.6120   -0.0482    0.0000 H       1  UNL1        0.0235
     36 H           5.2320   -0.6682    0.0000 H       1  UNL1        0.0235
     37 H           5.8520   -0.0482    0.0000 H       1  UNL1        0.0235
     38 H           4.5781   -1.1308    0.0000 H       1  UNL1        0.0269
     39 H           4.9766   -0.4405    0.0000 H       1  UNL1        0.0269
     40 H           7.1564    3.0544    0.0000 H       1  UNL1        0.0235
     41 H           6.9197    3.8987    0.0000 H       1  UNL1        0.0235
     42 H           6.0755    3.6620    0.0000 H       1  UNL1        0.0235
     43 H           6.1493    3.6628    0.0000 H       1  UNL1        0.0235
     44 H           5.2998    3.8800    0.0000 H       1  UNL1        0.0235
     45 H           5.0827    3.0304    0.0000 H       1  UNL1        0.0235
     46 H           2.3240    0.9887    0.0000 H       1  UNL1        0.0233
     47 H           2.0970    0.1418    0.0000 H       1  UNL1        0.0233
     48 H           2.9440   -0.0851    0.0000 H       1  UNL1        0.0233
     49 H           3.2880   -0.4656    0.0000 H       1  UNL1        0.0296
     50 H           2.8894   -1.1559    0.0000 H       1  UNL1        0.0296
     51 H           4.5000   -2.6682    0.0000 H       1  UNL1        0.0260
     52 H           5.1200   -2.0482    0.0000 H       1  UNL1        0.0260
     53 H           4.5000   -1.4282    0.0000 H       1  UNL1        0.0260
     54 H           2.1900   -1.5113    0.0000 H       1  UNL1        0.0594
     55 H           2.9631   -3.3582    0.0000 H       1  UNL1        0.2106
     56 H           1.3800   -2.9142    0.0000 H       1  UNL1        0.0533
     57 H           2.3100   -3.4512    0.0000 H       1  UNL1        0.0533
@<TRIPOS>BOND
     1    18     1    1
     2     1    55    1
     3     2     3    1
     4     2     4    1
     5     2     6    1
     6     2    12    1
     7     3     5    1
     8     3     8    1
     9     3    22    1
    10     4     7    1
    11     4    13    1
    12     4    23    1
    13     5     9    1
    14     5    14    1
    15     5    15    1
    16     6    11    1
    17     6    24    1
    18     6    25    1
    19     7    10    1
    20     7    16    1
    21     7    26    1
    22     8    10    1
    23     8    27    1
    24     8    28    1
    25     9    11    1
    26     9    29    1
    27     9    30    1
    28    10    31    1
    29    10    32    1
    30    11    33    1
    31    11    34    1
    32    12    35    1
    33    12    36    1
    34    12    37    1
    35    13    17    1
    36    13    38    1
    37    13    39    1
    38    14    40    1
    39    14    41    1
    40    14    42    1
    41    15    43    1
    42    15    44    1
    43    15    45    1
    44    16    46    1
    45    16    47    1
    46    16    48    1
    47    17    18    1
    48    17    49    1
    49    17    50    1
    50    18    19    1
    51    18    20    1
    52    19    51    1
    53    19    52    1
    54    19    53    1
    55    20    21    2
    56    20    54    1
    57    21    56    1
    58    21    57    1
