@<TRIPOS>MOLECULE
IMPHY008621
 146 145 0 0 0
SMALL
GASTEIGER

@<TRIPOS>ATOM
      1 O          22.7846    0.7500    0.0000 O.3     1  UNL1       -0.4646
      2 O          21.9186   -0.7500    0.0000 O.2     1  UNL1       -0.2509
      3 C          33.1769    0.7500    0.0000 C.3     1  UNL1       -0.0531
      4 C          32.3109    0.2500    0.0000 C.3     1  UNL1       -0.0531
      5 C          34.0429    0.2500    0.0000 C.3     1  UNL1       -0.0531
      6 C          31.4449    0.7500    0.0000 C.3     1  UNL1       -0.0531
      7 C          34.9090    0.7500    0.0000 C.3     1  UNL1       -0.0531
      8 C          12.3923    0.7500    0.0000 C.3     1  UNL1       -0.0531
      9 C          11.5263    0.2500    0.0000 C.3     1  UNL1       -0.0531
     10 C          13.2583    0.2500    0.0000 C.3     1  UNL1       -0.0531
     11 C          10.6603    0.7500    0.0000 C.3     1  UNL1       -0.0531
     12 C          30.5788    0.2500    0.0000 C.3     1  UNL1       -0.0531
     13 C          35.7750    0.2500    0.0000 C.3     1  UNL1       -0.0531
     14 C          14.1244    0.7500    0.0000 C.3     1  UNL1       -0.0531
     15 C           9.7942    0.2500    0.0000 C.3     1  UNL1       -0.0531
     16 C          29.7128    0.7500    0.0000 C.3     1  UNL1       -0.0531
     17 C          14.9904    0.2500    0.0000 C.3     1  UNL1       -0.0531
     18 C          36.6410    0.7500    0.0000 C.3     1  UNL1       -0.0531
     19 C           8.9282    0.7500    0.0000 C.3     1  UNL1       -0.0531
     20 C          15.8564    0.7500    0.0000 C.3     1  UNL1       -0.0531
     21 C          28.8468    0.2500    0.0000 C.3     1  UNL1       -0.0531
     22 C          37.5070    0.2500    0.0000 C.3     1  UNL1       -0.0531
     23 C           8.0622    0.2500    0.0000 C.3     1  UNL1       -0.0531
     24 C          16.7224    0.2500    0.0000 C.3     1  UNL1       -0.0531
     25 C          27.9808    0.7500    0.0000 C.3     1  UNL1       -0.0531
     26 C          38.3731    0.7500    0.0000 C.3     1  UNL1       -0.0531
     27 C           7.1962    0.7500    0.0000 C.3     1  UNL1       -0.0531
     28 C          17.5885    0.7500    0.0000 C.3     1  UNL1       -0.0531
     29 C          27.1147    0.2500    0.0000 C.3     1  UNL1       -0.0531
     30 C          39.2391    0.2500    0.0000 C.3     1  UNL1       -0.0531
     31 C           6.3301    0.2500    0.0000 C.3     1  UNL1       -0.0531
     32 C          18.4545    0.2500    0.0000 C.3     1  UNL1       -0.0530
     33 C          26.2487    0.7500    0.0000 C.3     1  UNL1       -0.0530
     34 C          40.1051    0.7500    0.0000 C.3     1  UNL1       -0.0531
     35 C           5.4641    0.7500    0.0000 C.3     1  UNL1       -0.0531
     36 C          19.3205    0.7500    0.0000 C.3     1  UNL1       -0.0526
     37 C          25.3827    0.2500    0.0000 C.3     1  UNL1       -0.0500
     38 C          40.9711    0.2500    0.0000 C.3     1  UNL1       -0.0531
     39 C           4.5981    0.2500    0.0000 C.3     1  UNL1       -0.0531
     40 C          20.1865    0.2500    0.0000 C.3     1  UNL1       -0.0430
     41 C          24.5167    0.7500    0.0000 C.3     1  UNL1       -0.0185
     42 C          41.8372    0.7500    0.0000 C.3     1  UNL1       -0.0533
     43 C           3.7320    0.7500    0.0000 C.3     1  UNL1       -0.0533
     44 C          21.0526    0.7500    0.0000 C.3     1  UNL1        0.0449
     45 C          23.6506    0.2500    0.0000 C.3     1  UNL1        0.0925
     46 C          42.7032    0.2500    0.0000 C.3     1  UNL1       -0.0559
     47 C           2.8660    0.2500    0.0000 C.3     1  UNL1       -0.0559
     48 C          21.9186    0.2500    0.0000 C.2     1  UNL1        0.3071
     49 C          43.5692    0.7500    0.0000 C.3     1  UNL1       -0.0653
     50 C           2.0000    0.7500    0.0000 C.3     1  UNL1       -0.0653
     51 H          33.5754    1.2250    0.0000 H       1  UNL1        0.0265
     52 H          32.7784    1.2250    0.0000 H       1  UNL1        0.0265
     53 H          31.9124   -0.2249    0.0000 H       1  UNL1        0.0265
     54 H          32.7094   -0.2249    0.0000 H       1  UNL1        0.0265
     55 H          33.6444   -0.2249    0.0000 H       1  UNL1        0.0265
     56 H          34.4415   -0.2249    0.0000 H       1  UNL1        0.0265
     57 H          31.8434    1.2250    0.0000 H       1  UNL1        0.0265
     58 H          31.0463    1.2250    0.0000 H       1  UNL1        0.0265
     59 H          35.3075    1.2250    0.0000 H       1  UNL1        0.0265
     60 H          34.5104    1.2250    0.0000 H       1  UNL1        0.0265
     61 H          12.7908    1.2250    0.0000 H       1  UNL1        0.0265
     62 H          11.9938    1.2250    0.0000 H       1  UNL1        0.0265
     63 H          11.1278   -0.2249    0.0000 H       1  UNL1        0.0265
     64 H          11.9248   -0.2249    0.0000 H       1  UNL1        0.0265
     65 H          12.8598   -0.2249    0.0000 H       1  UNL1        0.0265
     66 H          13.6569   -0.2249    0.0000 H       1  UNL1        0.0265
     67 H          11.0588    1.2250    0.0000 H       1  UNL1        0.0265
     68 H          10.2617    1.2250    0.0000 H       1  UNL1        0.0265
     69 H          30.1803   -0.2249    0.0000 H       1  UNL1        0.0265
     70 H          30.9774   -0.2249    0.0000 H       1  UNL1        0.0265
     71 H          35.3765   -0.2249    0.0000 H       1  UNL1        0.0265
     72 H          36.1735   -0.2249    0.0000 H       1  UNL1        0.0265
     73 H          14.5229    1.2250    0.0000 H       1  UNL1        0.0265
     74 H          13.7258    1.2250    0.0000 H       1  UNL1        0.0265
     75 H           9.3957   -0.2249    0.0000 H       1  UNL1        0.0265
     76 H          10.1928   -0.2249    0.0000 H       1  UNL1        0.0265
     77 H          14.5919   -0.2249    0.0000 H       1  UNL1        0.0265
     78 H          15.3889   -0.2249    0.0000 H       1  UNL1        0.0265
     79 H          30.1113    1.2250    0.0000 H       1  UNL1        0.0265
     80 H          29.3143    1.2250    0.0000 H       1  UNL1        0.0265
     81 H          37.0395    1.2250    0.0000 H       1  UNL1        0.0265
     82 H          36.2425    1.2250    0.0000 H       1  UNL1        0.0265
     83 H           9.3267    1.2250    0.0000 H       1  UNL1        0.0265
     84 H           8.5297    1.2250    0.0000 H       1  UNL1        0.0265
     85 H          16.2549    1.2250    0.0000 H       1  UNL1        0.0265
     86 H          15.4579    1.2250    0.0000 H       1  UNL1        0.0265
     87 H          28.4483   -0.2249    0.0000 H       1  UNL1        0.0265
     88 H          29.2453   -0.2249    0.0000 H       1  UNL1        0.0265
     89 H          37.1085   -0.2249    0.0000 H       1  UNL1        0.0265
     90 H          37.9056   -0.2249    0.0000 H       1  UNL1        0.0265
     91 H           7.6636   -0.2249    0.0000 H       1  UNL1        0.0265
     92 H           8.4607   -0.2249    0.0000 H       1  UNL1        0.0265
     93 H          16.3239   -0.2249    0.0000 H       1  UNL1        0.0265
     94 H          17.1210   -0.2249    0.0000 H       1  UNL1        0.0265
     95 H          28.3793    1.2250    0.0000 H       1  UNL1        0.0265
     96 H          27.5822    1.2250    0.0000 H       1  UNL1        0.0265
     97 H          38.7716    1.2250    0.0000 H       1  UNL1        0.0265
     98 H          37.9745    1.2250    0.0000 H       1  UNL1        0.0265
     99 H           7.5947    1.2250    0.0000 H       1  UNL1        0.0265
    100 H           6.7976    1.2250    0.0000 H       1  UNL1        0.0265
    101 H          17.9870    1.2250    0.0000 H       1  UNL1        0.0265
    102 H          17.1899    1.2250    0.0000 H       1  UNL1        0.0265
    103 H          26.7162   -0.2249    0.0000 H       1  UNL1        0.0265
    104 H          27.5133   -0.2249    0.0000 H       1  UNL1        0.0265
    105 H          38.8406   -0.2249    0.0000 H       1  UNL1        0.0265
    106 H          39.6376   -0.2249    0.0000 H       1  UNL1        0.0265
    107 H           5.9316   -0.2249    0.0000 H       1  UNL1        0.0265
    108 H           6.7287   -0.2249    0.0000 H       1  UNL1        0.0265
    109 H          18.0560   -0.2249    0.0000 H       1  UNL1        0.0265
    110 H          18.8530   -0.2249    0.0000 H       1  UNL1        0.0265
    111 H          26.6472    1.2250    0.0000 H       1  UNL1        0.0265
    112 H          25.8502    1.2250    0.0000 H       1  UNL1        0.0265
    113 H          40.5036    1.2250    0.0000 H       1  UNL1        0.0265
    114 H          39.7066    1.2250    0.0000 H       1  UNL1        0.0265
    115 H           5.8626    1.2250    0.0000 H       1  UNL1        0.0265
    116 H           5.0656    1.2250    0.0000 H       1  UNL1        0.0265
    117 H          19.7190    1.2250    0.0000 H       1  UNL1        0.0265
    118 H          18.9220    1.2250    0.0000 H       1  UNL1        0.0265
    119 H          24.9842   -0.2249    0.0000 H       1  UNL1        0.0266
    120 H          25.7812   -0.2249    0.0000 H       1  UNL1        0.0266
    121 H          40.5726   -0.2249    0.0000 H       1  UNL1        0.0265
    122 H          41.3697   -0.2249    0.0000 H       1  UNL1        0.0265
    123 H           4.1996   -0.2249    0.0000 H       1  UNL1        0.0265
    124 H           4.9966   -0.2249    0.0000 H       1  UNL1        0.0265
    125 H          19.7880   -0.2249    0.0000 H       1  UNL1        0.0270
    126 H          20.5851   -0.2249    0.0000 H       1  UNL1        0.0270
    127 H          24.9152    1.2250    0.0000 H       1  UNL1        0.0298
    128 H          24.1181    1.2250    0.0000 H       1  UNL1        0.0298
    129 H          42.2357    1.2250    0.0000 H       1  UNL1        0.0265
    130 H          41.4386    1.2250    0.0000 H       1  UNL1        0.0265
    131 H           4.1306    1.2250    0.0000 H       1  UNL1        0.0265
    132 H           3.3335    1.2250    0.0000 H       1  UNL1        0.0265
    133 H          21.4511    1.2250    0.0000 H       1  UNL1        0.0377
    134 H          20.6540    1.2250    0.0000 H       1  UNL1        0.0377
    135 H          23.2521   -0.2249    0.0000 H       1  UNL1        0.0697
    136 H          24.0492   -0.2249    0.0000 H       1  UNL1        0.0697
    137 H          42.3047   -0.2249    0.0000 H       1  UNL1        0.0263
    138 H          43.1017   -0.2249    0.0000 H       1  UNL1        0.0263
    139 H           2.4675   -0.2249    0.0000 H       1  UNL1        0.0263
    140 H           3.2646   -0.2249    0.0000 H       1  UNL1        0.0263
    141 H          43.8792    0.2131    0.0000 H       1  UNL1        0.0230
    142 H          44.1062    1.0600    0.0000 H       1  UNL1        0.0230
    143 H          43.2592    1.2869    0.0000 H       1  UNL1        0.0230
    144 H           2.3100    1.2869    0.0000 H       1  UNL1        0.0230
    145 H           1.4631    1.0600    0.0000 H       1  UNL1        0.0230
    146 H           1.6900    0.2131    0.0000 H       1  UNL1        0.0230
@<TRIPOS>BOND
     1     1    45    1
     2     1    48    1
     3     2    48    2
     4     3     4    1
     5     3     5    1
     6     3    51    1
     7     3    52    1
     8     4     6    1
     9     4    53    1
    10     4    54    1
    11     5     7    1
    12     5    55    1
    13     5    56    1
    14     6    12    1
    15     6    57    1
    16     6    58    1
    17     7    13    1
    18     7    59    1
    19     7    60    1
    20     8     9    1
    21     8    10    1
    22     8    61    1
    23     8    62    1
    24     9    11    1
    25     9    63    1
    26     9    64    1
    27    10    14    1
    28    10    65    1
    29    10    66    1
    30    11    15    1
    31    11    67    1
    32    11    68    1
    33    12    16    1
    34    12    69    1
    35    12    70    1
    36    13    18    1
    37    13    71    1
    38    13    72    1
    39    14    17    1
    40    14    73    1
    41    14    74    1
    42    15    19    1
    43    15    75    1
    44    15    76    1
    45    16    21    1
    46    16    79    1
    47    16    80    1
    48    17    20    1
    49    17    77    1
    50    17    78    1
    51    18    22    1
    52    18    81    1
    53    18    82    1
    54    19    23    1
    55    19    83    1
    56    19    84    1
    57    20    24    1
    58    20    85    1
    59    20    86    1
    60    21    25    1
    61    21    87    1
    62    21    88    1
    63    22    26    1
    64    22    89    1
    65    22    90    1
    66    23    27    1
    67    23    91    1
    68    23    92    1
    69    24    28    1
    70    24    93    1
    71    24    94    1
    72    25    29    1
    73    25    95    1
    74    25    96    1
    75    26    30    1
    76    26    97    1
    77    26    98    1
    78    27    31    1
    79    27    99    1
    80    27   100    1
    81    28    32    1
    82    28   101    1
    83    28   102    1
    84    29    33    1
    85    29   103    1
    86    29   104    1
    87    30    34    1
    88    30   105    1
    89    30   106    1
    90    31    35    1
    91    31   107    1
    92    31   108    1
    93    32    36    1
    94    32   109    1
    95    32   110    1
    96    33    37    1
    97    33   111    1
    98    33   112    1
    99    34    38    1
   100    34   113    1
   101    34   114    1
   102    35    39    1
   103    35   115    1
   104    35   116    1
   105    36    40    1
   106    36   117    1
   107    36   118    1
   108    37    41    1
   109    37   119    1
   110    37   120    1
   111    38    42    1
   112    38   121    1
   113    38   122    1
   114    39    43    1
   115    39   123    1
   116    39   124    1
   117    40    44    1
   118    40   125    1
   119    40   126    1
   120    41    45    1
   121    41   127    1
   122    41   128    1
   123    42    46    1
   124    42   129    1
   125    42   130    1
   126    43    47    1
   127    43   131    1
   128    43   132    1
   129    44    48    1
   130    44   133    1
   131    44   134    1
   132    45   135    1
   133    45   136    1
   134    46    49    1
   135    46   137    1
   136    46   138    1
   137    47    50    1
   138    47   139    1
   139    47   140    1
   140    49   141    1
   141    49   142    1
   142    49   143    1
   143    50   144    1
   144    50   145    1
   145    50   146    1
