@<TRIPOS>MOLECULE
IMPHY003107
 20 21 0 0 0
SMALL
GASTEIGER

@<TRIPOS>ATOM
      1 O           4.6660    1.3450    0.0000 O.3     1  UNL1       -0.4528
      2 O           6.3981    1.3450    0.0000 O.3     1  UNL1       -0.3508
      3 O           4.6660   -1.6550    0.0000 O.3     1  UNL1       -0.2874
      4 O           6.3981   -0.6550    0.0000 O.2     1  UNL1       -0.2662
      5 N           4.6660   -0.6550    0.0000 N.am    1  UNL1       -0.1425
      6 C           3.8000   -0.1550    0.0000 C.ar    1  UNL1        0.1060
      7 C           3.8000    0.8450    0.0000 C.ar    1  UNL1        0.1480
      8 C           5.5321    0.8450    0.0000 C.3     1  UNL1        0.2794
      9 C           5.5321   -0.1550    0.0000 C.2     1  UNL1        0.3114
     10 C           2.9061   -0.6897    0.0000 C.ar    1  UNL1       -0.0344
     11 C           2.9061    1.3797    0.0000 C.ar    1  UNL1       -0.0179
     12 C           2.0000   -0.1758    0.0000 C.ar    1  UNL1       -0.0597
     13 C           2.0000    0.8658    0.0000 C.ar    1  UNL1       -0.0582
     14 H           5.5321    1.4650    0.0000 H       1  UNL1        0.1160
     15 H           2.9132   -1.3096    0.0000 H       1  UNL1        0.0638
     16 H           2.9132    1.9996    0.0000 H       1  UNL1        0.0655
     17 H           1.4643   -0.4879    0.0000 H       1  UNL1        0.0618
     18 H           1.4643    1.1779    0.0000 H       1  UNL1        0.0619
     19 H           6.3981    1.9650    0.0000 H       1  UNL1        0.2140
     20 H           5.2030   -1.9650    0.0000 H       1  UNL1        0.2421
@<TRIPOS>BOND
     1     1     7    1
     2     1     8    1
     3     2     8    1
     4     2    19    1
     5     3     5    1
     6     3    20    1
     7     4     9    2
     8     5     6    1
     9     5     9   am
    10     6     7   ar
    11     6    10   ar
    12     7    11   ar
    13     8     9    1
    14     8    14    1
    15    10    12   ar
    16    10    15    1
    17    11    13   ar
    18    11    16    1
    19    12    13   ar
    20    12    17    1
    21    13    18    1
