@<TRIPOS>MOLECULE
IMPHY013534
 118 128 0 0 0
SMALL
GASTEIGER

@<TRIPOS>ATOM
      1 O          12.9669   -1.7219    0.0000 O.3     1  UNL1       -0.4501
      2 O           8.6978   -1.0756    0.0000 O.3     1  UNL1       -0.4532
      3 O          13.2147   -0.8812    0.0000 O.3     1  UNL1       -0.3504
      4 O           9.7670   -1.7341    0.0000 O.3     1  UNL1       -0.4502
      5 O          12.7299    0.8112    0.0000 O.3     1  UNL1       -0.3539
      6 O          13.2299   -0.0548    0.0000 O.3     1  UNL1       -0.3539
      7 O          11.3638    1.4452    0.0000 O.2     1  UNL1       -0.2864
      8 O           7.5726   -1.1368    0.0000 O.3     1  UNL1       -0.4501
      9 O          10.6652    2.1837    0.0000 O.3     1  UNL1       -0.4808
     10 O          10.5475   -1.9206    0.0000 O.2     1  UNL1       -0.2453
     11 O           9.1496   -3.4480    0.0000 O.3     1  UNL1       -0.4542
     12 O          13.9940   -3.6608    0.0000 O.3     1  UNL1       -0.5009
     13 O           7.6040    0.5030    0.0000 O.3     1  UNL1       -0.5062
     14 O           9.9414   -3.4698    0.0000 O.2     1  UNL1       -0.2449
     15 O          12.8079   -5.3232    0.0000 O.3     1  UNL1       -0.5032
     16 O          11.1996    4.8457    0.0000 O.3     1  UNL1       -0.3875
     17 O           7.4034   -2.6214    0.0000 O.3     1  UNL1       -0.4573
     18 O           7.6441    3.9668    0.0000 O.3     1  UNL1       -0.5063
     19 O           6.9181   -2.6914    0.0000 O.2     1  UNL1       -0.2449
     20 O           7.5186   -4.0309    0.0000 O.2     1  UNL1       -0.2512
     21 O           5.6509   -1.8682    0.0000 O.2     1  UNL1       -0.2449
     22 O          14.2296    4.7612    0.0000 O.3     1  UNL1       -0.5033
     23 O          15.2028    3.0139    0.0000 O.3     1  UNL1       -0.5033
     24 O           3.5833   -0.2100    0.0000 O.3     1  UNL1       -0.5028
     25 O           6.4869    1.8148    0.0000 O.3     1  UNL1       -0.5032
     26 O           3.1581   -1.1081    0.0000 O.3     1  UNL1       -0.5028
     27 O           4.4454    1.6481    0.0000 O.3     1  UNL1       -0.5009
     28 O           2.2674   -2.9526    0.0000 O.3     1  UNL1       -0.5009
     29 O           3.4325   -4.6373    0.0000 O.3     1  UNL1       -0.5032
     30 C          11.3638   -1.5548    0.0000 C.3     1  UNL1        0.0918
     31 C          12.2299   -1.0548    0.0000 C.3     1  UNL1        0.2834
     32 C           9.6039    0.4798    0.0000 C.3     1  UNL1        0.0608
     33 C          10.4978   -0.0548    0.0000 C.2     1  UNL1        0.0227
     34 C          10.4978   -1.0548    0.0000 C.2     1  UNL1        0.0579
     35 C           8.6978   -0.0340    0.0000 C.3     1  UNL1        0.1548
     36 C          12.2299   -0.0548    0.0000 C.3     1  UNL1        0.2980
     37 C          11.5730   -2.5266    0.0000 C.ar    1  UNL1        0.0263
     38 C           9.2176   -0.8934    0.0000 C.3     1  UNL1        0.1811
     39 C          11.3638    0.4452    0.0000 C.2     1  UNL1        0.2256
     40 C          12.5618   -2.6297    0.0000 C.ar    1  UNL1        0.1741
     41 C           9.1139    1.3516    0.0000 C.ar    1  UNL1        0.0473
     42 C           9.6039   -1.5895    0.0000 C.2     1  UNL1        0.3368
     43 C           8.4764   -1.5646    0.0000 C.3     1  UNL1        0.1834
     44 C          10.9523   -3.3554    0.0000 C.ar    1  UNL1        0.0701
     45 C           9.6239    2.2118    0.0000 C.ar    1  UNL1        0.1356
     46 C          12.9983   -3.5686    0.0000 C.ar    1  UNL1        0.2013
     47 C          10.3455   -2.5551    0.0000 C.2     1  UNL1        0.3402
     48 C           8.8130   -2.5063    0.0000 C.3     1  UNL1        0.1771
     49 C           8.1140    1.3632    0.0000 C.ar    1  UNL1        0.1277
     50 C          11.3670   -4.3042    0.0000 C.ar    1  UNL1       -0.0020
     51 C           9.1340    3.0835    0.0000 C.ar    1  UNL1        0.0387
     52 C          12.3969   -4.4115    0.0000 C.ar    1  UNL1        0.1628
     53 C           9.6513    3.9876    0.0000 C.3     1  UNL1        0.0092
     54 C          11.2033    3.0756    0.0000 C.3     1  UNL1        0.1513
     55 C          10.6929    3.9836    0.0000 C.3     1  UNL1        0.1004
     56 C           7.6240    2.2349    0.0000 C.ar    1  UNL1        0.0221
     57 C           8.1340    3.0951    0.0000 C.ar    1  UNL1        0.1271
     58 C           8.1658   -3.2686    0.0000 C.3     1  UNL1        0.1333
     59 C          12.2031    3.0601    0.0000 C.ar    1  UNL1       -0.0012
     60 C           6.7501   -1.7055    0.0000 C.2     1  UNL1        0.3405
     61 C           8.5024   -4.2103    0.0000 C.2     1  UNL1        0.3044
     62 C           6.1813   -0.8831    0.0000 C.ar    1  UNL1        0.0740
     63 C          12.7164    3.9184    0.0000 C.ar    1  UNL1       -0.0098
     64 C          12.6897    2.1865    0.0000 C.ar    1  UNL1       -0.0513
     65 C           6.3222   -2.6094    0.0000 C.2     1  UNL1        0.3401
     66 C           5.1846   -0.9645    0.0000 C.ar    1  UNL1        0.0458
     67 C          13.7163    3.9029    0.0000 C.ar    1  UNL1        0.1586
     68 C           8.8390   -5.1520    0.0000 C.3     1  UNL1        0.0332
     69 C          13.6896    2.1711    0.0000 C.ar    1  UNL1       -0.0162
     70 C           5.3255   -2.6908    0.0000 C.ar    1  UNL1        0.0740
     71 C           4.7567   -1.8683    0.0000 C.ar    1  UNL1        0.0458
     72 C           6.6414    0.0513    0.0000 C.ar    1  UNL1       -0.0017
     73 C          14.2029    3.0293    0.0000 C.ar    1  UNL1        0.1582
     74 C           4.5790   -0.1171    0.0000 C.ar    1  UNL1        0.1708
     75 C           6.0556    0.9126    0.0000 C.ar    1  UNL1        0.1628
     76 C           3.7174   -1.9370    0.0000 C.ar    1  UNL1        0.1708
     77 C           5.0174    0.8278    0.0000 C.ar    1  UNL1        0.2012
     78 C           4.8944   -3.6390    0.0000 C.ar    1  UNL1       -0.0017
     79 C           3.2644   -2.8750    0.0000 C.ar    1  UNL1        0.2012
     80 C           3.8569   -3.7318    0.0000 C.ar    1  UNL1        0.1628
     81 H          11.3638   -0.9348    0.0000 H       1  UNL1        0.0467
     82 H          10.0482    0.9123    0.0000 H       1  UNL1        0.0438
     83 H           8.1621    0.2781    0.0000 H       1  UNL1        0.0782
     84 H           9.7424   -0.5633    0.0000 H       1  UNL1        0.0811
     85 H           9.0778   -1.7155    0.0000 H       1  UNL1        0.0812
     86 H          13.6132   -1.3561    0.0000 H       1  UNL1        0.2140
     87 H           9.3968   -2.2976    0.0000 H       1  UNL1        0.0808
     88 H          12.4199    1.3482    0.0000 H       1  UNL1        0.2134
     89 H          13.5399    0.4821    0.0000 H       1  UNL1        0.2134
     90 H          11.0010   -4.8047    0.0000 H       1  UNL1        0.0663
     91 H           9.7597    4.5980    0.0000 H       1  UNL1        0.0342
     92 H           9.0684    4.1989    0.0000 H       1  UNL1        0.0342
     93 H          11.5205    3.6083    0.0000 H       1  UNL1        0.0811
     94 H          10.3860    4.5223    0.0000 H       1  UNL1        0.0637
     95 H           7.0041    2.2421    0.0000 H       1  UNL1        0.0691
     96 H           7.7645   -3.7413    0.0000 H       1  UNL1        0.0736
     97 H           8.6384   -3.6699    0.0000 H       1  UNL1        0.0736
     98 H          14.2532   -4.2240    0.0000 H       1  UNL1        0.2924
     99 H           7.9078   -0.0375    0.0000 H       1  UNL1        0.2921
    100 H          13.4248   -5.3850    0.0000 H       1  UNL1        0.2923
    101 H          10.8937    5.3850    0.0000 H       1  UNL1        0.2100
    102 H           7.0241    3.9740    0.0000 H       1  UNL1        0.2921
    103 H          12.4147    4.4600    0.0000 H       1  UNL1        0.0659
    104 H          12.3715    1.6544    0.0000 H       1  UNL1        0.0623
    105 H           8.2551   -5.3606    0.0000 H       1  UNL1        0.0342
    106 H           9.0476   -5.7358    0.0000 H       1  UNL1        0.0342
    107 H           9.4228   -4.9433    0.0000 H       1  UNL1        0.0342
    108 H          13.9913    1.6294    0.0000 H       1  UNL1        0.0655
    109 H           7.2599    0.0946    0.0000 H       1  UNL1        0.0664
    110 H           5.2530   -4.1448    0.0000 H       1  UNL1        0.0664
    111 H          14.8495    4.7516    0.0000 H       1  UNL1        0.2923
    112 H          15.5045    2.4722    0.0000 H       1  UNL1        0.2923
    113 H           3.2248    0.2959    0.0000 H       1  UNL1        0.2923
    114 H           6.1362    2.3260    0.0000 H       1  UNL1        0.2923
    115 H           2.5396   -1.1514    0.0000 H       1  UNL1        0.2923
    116 H           3.8276    1.5952    0.0000 H       1  UNL1        0.2924
    117 H           2.0000   -3.5119    0.0000 H       1  UNL1        0.2924
    118 H           3.7872   -5.1458    0.0000 H       1  UNL1        0.2923
@<TRIPOS>BOND
     1     1    31    1
     2     1    40    1
     3     2    35    1
     4     2    42    1
     5     3    31    1
     6     3    86    1
     7     4    38    1
     8     4    47    1
     9     5    36    1
    10     5    88    1
    11     6    36    1
    12     6    89    1
    13     7    39    2
    14     8    43    1
    15     8    60    1
    16     9    45    1
    17     9    54    1
    18    10    42    2
    19    11    48    1
    20    11    61    1
    21    12    46    1
    22    12    98    1
    23    13    49    1
    24    13    99    1
    25    14    47    2
    26    15    52    1
    27    15   100    1
    28    16    55    1
    29    16   101    1
    30    17    58    1
    31    17    65    1
    32    18    57    1
    33    18   102    1
    34    19    60    2
    35    20    61    2
    36    21    65    2
    37    22    67    1
    38    22   111    1
    39    23    73    1
    40    23   112    1
    41    24    74    1
    42    24   113    1
    43    25    75    1
    44    25   114    1
    45    26    76    1
    46    26   115    1
    47    27    77    1
    48    27   116    1
    49    28    79    1
    50    28   117    1
    51    29    80    1
    52    29   118    1
    53    30    31    1
    54    30    34    1
    55    30    37    1
    56    30    81    1
    57    31    36    1
    58    32    33    1
    59    32    35    1
    60    32    41    1
    61    32    82    1
    62    33    34    2
    63    33    39    1
    64    34    42    1
    65    35    38    1
    66    35    83    1
    67    36    39    1
    68    37    40   ar
    69    37    44   ar
    70    38    43    1
    71    38    84    1
    72    40    46   ar
    73    41    45   ar
    74    41    49   ar
    75    43    48    1
    76    43    85    1
    77    44    47    1
    78    44    50   ar
    79    45    51   ar
    80    46    52   ar
    81    48    58    1
    82    48    87    1
    83    49    56   ar
    84    50    52   ar
    85    50    90    1
    86    51    53    1
    87    51    57   ar
    88    53    55    1
    89    53    91    1
    90    53    92    1
    91    54    55    1
    92    54    59    1
    93    54    93    1
    94    55    94    1
    95    56    57   ar
    96    56    95    1
    97    58    96    1
    98    58    97    1
    99    59    63   ar
   100    59    64   ar
   101    60    62    1
   102    61    68    1
   103    62    66   ar
   104    62    72   ar
   105    63    67   ar
   106    63   103    1
   107    64    69   ar
   108    64   104    1
   109    65    70    1
   110    66    71    1
   111    66    74   ar
   112    67    73   ar
   113    68   105    1
   114    68   106    1
   115    68   107    1
   116    69    73   ar
   117    69   108    1
   118    70    71   ar
   119    70    78   ar
   120    71    76   ar
   121    72    75   ar
   122    72   109    1
   123    74    77   ar
   124    75    77   ar
   125    76    79   ar
   126    78    80   ar
   127    78   110    1
   128    79    80   ar
