@<TRIPOS>MOLECULE
IMPHY013211
 47 49 0 0 0
SMALL
GASTEIGER

@<TRIPOS>ATOM
      1 O           6.3580   -1.8309    0.0000 O.3     1  UNL1       -0.4831
      2 O           2.8660    0.2037    0.0000 O.3     1  UNL1       -0.4948
      3 O           6.3465    1.2383    0.0000 O.2     1  UNL1       -0.2918
      4 O           3.7320    2.7037    0.0000 O.2     1  UNL1       -0.5107
      5 C           4.5981    1.2037    0.0000 C.3     1  UNL1        0.0507
      6 C           4.5981    0.2037    0.0000 C.ar    1  UNL1        0.0211
      7 C           5.4641   -0.2963    0.0000 C.ar    1  UNL1        0.0667
      8 C           7.2641   -1.3171    0.0000 C.3     1  UNL1        0.1322
      9 C           7.2641   -0.2754    0.0000 C.3     1  UNL1        0.0519
     10 C           5.4641   -1.2963    0.0000 C.ar    1  UNL1        0.1324
     11 C           6.3580    0.2384    0.0000 C.2     1  UNL1        0.1709
     12 C           3.5981    1.2037    0.0000 C.3     1  UNL1       -0.0487
     13 C           5.5981    1.2037    0.0000 C.3     1  UNL1       -0.0487
     14 C           3.7320   -0.2963    0.0000 C.ar    1  UNL1        0.1251
     15 C           4.5981    2.2037    0.0000 C.2     1  UNL1        0.0970
     16 C           8.1282   -1.8204    0.0000 C.ar    1  UNL1       -0.0069
     17 C           4.5981   -1.7963    0.0000 C.ar    1  UNL1       -0.0157
     18 C           3.7320   -1.2963    0.0000 C.ar    1  UNL1       -0.0162
     19 C           8.1244   -2.8204    0.0000 C.ar    1  UNL1       -0.0551
     20 C           8.9962   -1.3238    0.0000 C.ar    1  UNL1       -0.0551
     21 C           5.4641    2.7037    0.0000 C.2     1  UNL1       -0.0604
     22 C           8.9884   -3.3237    0.0000 C.ar    1  UNL1       -0.0614
     23 C           9.8602   -1.8271    0.0000 C.ar    1  UNL1       -0.0614
     24 C           2.0000   -0.2963    0.0000 C.3     1  UNL1        0.0788
     25 C           9.8564   -2.8271    0.0000 C.ar    1  UNL1       -0.0617
     26 H           7.2605   -1.9371    0.0000 H       1  UNL1        0.0789
     27 H           7.8750   -0.3815    0.0000 H       1  UNL1        0.0385
     28 H           7.4732    0.3082    0.0000 H       1  UNL1        0.0385
     29 H           3.5981    1.8237    0.0000 H       1  UNL1        0.0242
     30 H           2.9781    1.2037    0.0000 H       1  UNL1        0.0242
     31 H           3.5981    0.5837    0.0000 H       1  UNL1        0.0242
     32 H           5.5981    0.5837    0.0000 H       1  UNL1        0.0242
     33 H           6.2181    1.2037    0.0000 H       1  UNL1        0.0242
     34 H           5.5981    1.8237    0.0000 H       1  UNL1        0.0242
     35 H           4.5981   -2.4163    0.0000 H       1  UNL1        0.0655
     36 H           3.1951   -1.6063    0.0000 H       1  UNL1        0.0655
     37 H           7.5862   -3.1283    0.0000 H       1  UNL1        0.0621
     38 H           8.9985   -0.7038    0.0000 H       1  UNL1        0.0621
     39 H           6.0010    2.3937    0.0000 H       1  UNL1        0.0568
     40 H           5.4641    3.3237    0.0000 H       1  UNL1        0.0568
     41 H           3.7320    3.3237    0.0000 H       1  UNL1        0.2917
     42 H           8.9860   -3.9437    0.0000 H       1  UNL1        0.0618
     43 H          10.3984   -1.5192    0.0000 H       1  UNL1        0.0618
     44 H           1.6900    0.2407    0.0000 H       1  UNL1        0.0660
     45 H           1.4631   -0.6063    0.0000 H       1  UNL1        0.0660
     46 H           2.3100   -0.8332    0.0000 H       1  UNL1        0.0660
     47 H          10.3921   -3.1392    0.0000 H       1  UNL1        0.0618
@<TRIPOS>BOND
     1     1     8    1
     2     1    10    1
     3     2    14    1
     4     2    24    1
     5     3    11    2
     6     4    15    1
     7     4    41    1
     8     5     6    1
     9     5    12    1
    10     5    13    1
    11     5    15    1
    12     6     7   ar
    13     6    14   ar
    14     7    10   ar
    15     7    11    1
    16     8     9    1
    17     8    16    1
    18     8    26    1
    19     9    11    1
    20     9    27    1
    21     9    28    1
    22    10    17   ar
    23    12    29    1
    24    12    30    1
    25    12    31    1
    26    13    32    1
    27    13    33    1
    28    13    34    1
    29    14    18   ar
    30    15    21    2
    31    16    19   ar
    32    16    20   ar
    33    17    18   ar
    34    17    35    1
    35    18    36    1
    36    19    22   ar
    37    19    37    1
    38    20    23   ar
    39    20    38    1
    40    21    39    1
    41    21    40    1
    42    22    25   ar
    43    22    42    1
    44    23    25   ar
    45    23    43    1
    46    24    44    1
    47    24    45    1
    48    24    46    1
    49    25    47    1
