@<TRIPOS>MOLECULE
IMPHY014135
 89 94 0 0 0
SMALL
GASTEIGER

@<TRIPOS>ATOM
      1 O           3.6747   -1.2170    0.0000 O.3     1  UNL1       -0.3730
      2 O           5.7330   -2.5429    0.0000 O.3     1  UNL1       -0.3656
      3 O           6.4116    1.9604    0.0000 O.3     1  UNL1       -0.4574
      4 O           2.8718    1.9741    0.0000 O.3     1  UNL1       -0.4608
      5 O           8.9879    0.4290    0.0000 O.3     1  UNL1       -0.4679
      6 O           8.1219   -1.0710    0.0000 O.2     1  UNL1       -0.2509
      7 O           5.5630    3.4703    0.0000 O.2     1  UNL1       -0.2453
      8 O           3.7320    3.4774    0.0000 O.2     1  UNL1       -0.2512
      9 O           8.7635   -4.9402    0.0000 O.2     1  UNL1       -0.2705
     10 N          10.4277   -4.3030    0.0000 N.am    1  UNL1       -0.3080
     11 C           5.5238    0.4290    0.0000 C.3     1  UNL1        0.0152
     12 C           4.6578   -0.0710    0.0000 C.3     1  UNL1        0.0077
     13 C           6.3898   -1.0710    0.0000 C.3     1  UNL1        0.0242
     14 C           6.3898   -0.0710    0.0000 C.3     1  UNL1       -0.0102
     15 C           3.7478    0.4358    0.0000 C.3     1  UNL1        0.0343
     16 C           4.6578   -1.0710    0.0000 C.3     1  UNL1        0.0897
     17 C           5.5238   -1.5710    0.0000 C.3     1  UNL1        0.0952
     18 C           5.5399    1.4705    0.0000 C.3     1  UNL1        0.1127
     19 C           3.7398    1.4774    0.0000 C.3     1  UNL1        0.1142
     20 C           7.1268   -1.7381    0.0000 C.2     1  UNL1       -0.0329
     21 C           3.1610   -0.3663    0.0000 C.3     1  UNL1        0.0572
     22 C           4.6418    1.9982    0.0000 C.3     1  UNL1        0.0227
     23 C           6.7217   -2.6459    0.0000 C.3     1  UNL1        0.0819
     24 C           6.3898    0.9290    0.0000 C.3     1  UNL1       -0.0555
     25 C           7.2558    0.4290    0.0000 C.3     1  UNL1        0.0492
     26 C           7.2558   -0.5710    0.0000 C.3     1  UNL1       -0.0530
     27 C           2.7478    0.4243    0.0000 C.3     1  UNL1       -0.0537
     28 C           8.1093   -1.8448    0.0000 C.2     1  UNL1       -0.0627
     29 C           7.4572   -3.3059    0.0000 C.3     1  UNL1       -0.0120
     30 C           8.3130   -2.8118    0.0000 C.3     1  UNL1        0.0126
     31 C           8.1219   -0.0710    0.0000 C.2     1  UNL1        0.3071
     32 C           8.7803   -1.1034    0.0000 C.3     1  UNL1       -0.0429
     33 C           9.2262   -3.2193    0.0000 C.2     1  UNL1        0.0190
     34 C           6.4232    2.9604    0.0000 C.2     1  UNL1        0.3348
     35 C           2.8680    2.9741    0.0000 C.2     1  UNL1        0.3042
     36 C          10.0927   -2.7200    0.0000 C.2     1  UNL1       -0.0584
     37 C           9.4333   -4.1976    0.0000 C.2     1  UNL1        0.2406
     38 C           7.2949    3.4503    0.0000 C.2     1  UNL1        0.0293
     39 C          10.8353   -3.3898    0.0000 C.3     1  UNL1        0.0309
     40 C           2.0000    3.4707    0.0000 C.3     1  UNL1        0.0332
     41 C           9.8539   -0.0710    0.0000 C.3     1  UNL1        0.0817
     42 C           8.1551    2.9403    0.0000 C.3     1  UNL1       -0.0333
     43 C           7.3065    4.4502    0.0000 C.2     1  UNL1       -0.0774
     44 C           8.1782    4.9402    0.0000 C.3     1  UNL1       -0.0461
     45 H           4.6578    0.7790    0.0000 H       1  UNL1        0.0340
     46 H           6.9268   -0.3810    0.0000 H       1  UNL1        0.0322
     47 H           4.4988   -1.9060    0.0000 H       1  UNL1        0.0625
     48 H           4.8368   -2.0715    0.0000 H       1  UNL1        0.0631
     49 H           5.5458    2.0904    0.0000 H       1  UNL1        0.0741
     50 H           3.7386    2.0974    0.0000 H       1  UNL1        0.0741
     51 H           2.7131    0.0625    0.0000 H       1  UNL1        0.0567
     52 H           2.6770   -0.7538    0.0000 H       1  UNL1        0.0567
     53 H           5.0428    2.4711    0.0000 H       1  UNL1        0.0337
     54 H           4.2445    2.4742    0.0000 H       1  UNL1        0.0337
     55 H           6.3770   -3.4229    0.0000 H       1  UNL1        0.0644
     56 H           6.6998    0.3920    0.0000 H       1  UNL1        0.0236
     57 H           6.9268    1.2390    0.0000 H       1  UNL1        0.0236
     58 H           6.0798    1.4659    0.0000 H       1  UNL1        0.0236
     59 H           7.6544    0.9039    0.0000 H       1  UNL1        0.0381
     60 H           6.8573    0.9039    0.0000 H       1  UNL1        0.0381
     61 H           7.5658   -1.1080    0.0000 H       1  UNL1        0.0239
     62 H           7.7928   -0.2610    0.0000 H       1  UNL1        0.0239
     63 H           6.9458   -0.0341    0.0000 H       1  UNL1        0.0239
     64 H           2.7407    1.0442    0.0000 H       1  UNL1        0.0237
     65 H           2.1279    0.4171    0.0000 H       1  UNL1        0.0237
     66 H           2.7550   -0.1957    0.0000 H       1  UNL1        0.0237
     67 H           6.9970   -3.7213    0.0000 H       1  UNL1        0.0302
     68 H           7.8220   -3.8072    0.0000 H       1  UNL1        0.0302
     69 H           8.3452   -3.4309    0.0000 H       1  UNL1        0.0396
     70 H           9.2400   -1.5195    0.0000 H       1  UNL1        0.0275
     71 H           9.1964   -0.6437    0.0000 H       1  UNL1        0.0275
     72 H           8.3206   -0.6874    0.0000 H       1  UNL1        0.0275
     73 H          10.1580   -2.1035    0.0000 H       1  UNL1        0.0592
     74 H          11.3719   -3.7003    0.0000 H       1  UNL1        0.0506
     75 H          11.2001   -2.8886    0.0000 H       1  UNL1        0.0506
     76 H           2.3079    4.0088    0.0000 H       1  UNL1        0.0342
     77 H           1.4619    3.7786    0.0000 H       1  UNL1        0.0342
     78 H           1.6921    2.9326    0.0000 H       1  UNL1        0.0342
     79 H          10.7373   -4.8402    0.0000 H       1  UNL1        0.1493
     80 H           9.5439   -0.6080    0.0000 H       1  UNL1        0.0661
     81 H          10.3909   -0.3810    0.0000 H       1  UNL1        0.0661
     82 H          10.1639    0.4659    0.0000 H       1  UNL1        0.0661
     83 H           7.8389    2.4070    0.0000 H       1  UNL1        0.0280
     84 H           8.6884    2.6241    0.0000 H       1  UNL1        0.0280
     85 H           8.4713    3.4736    0.0000 H       1  UNL1        0.0280
     86 H           6.7732    4.7664    0.0000 H       1  UNL1        0.0574
     87 H           8.4820    4.3997    0.0000 H       1  UNL1        0.0272
     88 H           8.7187    5.2440    0.0000 H       1  UNL1        0.0272
     89 H           7.8745    5.4807    0.0000 H       1  UNL1        0.0272
@<TRIPOS>BOND
     1     1    16    1
     2     1    21    1
     3     2    17    1
     4     2    23    1
     5    18     3    1
     6     3    34    1
     7    19     4    1
     8     4    35    1
     9     5    31    1
    10     5    41    1
    11     6    31    2
    12     7    34    2
    13     8    35    2
    14     9    37    2
    15    10    37   am
    16    10    39    1
    17    10    79    1
    18    11    12    1
    19    11    14    1
    20    11    18    1
    21    11    24    1
    22    12    15    1
    23    12    16    1
    24    12    45    1
    25    13    14    1
    26    13    17    1
    27    13    20    1
    28    13    26    1
    29    14    25    1
    30    14    46    1
    31    15    19    1
    32    15    21    1
    33    15    27    1
    34    16    17    1
    35    16    47    1
    36    17    48    1
    37    18    22    1
    38    18    49    1
    39    19    22    1
    40    19    50    1
    41    20    23    1
    42    20    28    2
    43    21    51    1
    44    21    52    1
    45    22    53    1
    46    22    54    1
    47    23    29    1
    48    23    55    1
    49    24    56    1
    50    24    57    1
    51    24    58    1
    52    25    31    1
    53    25    59    1
    54    25    60    1
    55    26    61    1
    56    26    62    1
    57    26    63    1
    58    27    64    1
    59    27    65    1
    60    27    66    1
    61    28    30    1
    62    28    32    1
    63    29    30    1
    64    29    67    1
    65    29    68    1
    66    30    33    1
    67    30    69    1
    68    32    70    1
    69    32    71    1
    70    32    72    1
    71    33    36    2
    72    33    37    1
    73    34    38    1
    74    35    40    1
    75    36    39    1
    76    36    73    1
    77    38    42    1
    78    38    43    2
    79    39    74    1
    80    39    75    1
    81    40    76    1
    82    40    77    1
    83    40    78    1
    84    41    80    1
    85    41    81    1
    86    41    82    1
    87    42    83    1
    88    42    84    1
    89    42    85    1
    90    43    44    1
    91    43    86    1
    92    44    87    1
    93    44    88    1
    94    44    89    1
