@<TRIPOS>MOLECULE
IMPHY000944
 43 45 0 0 0
SMALL
GASTEIGER

@<TRIPOS>ATOM
      1 O           5.1350    0.5000    0.0000 O.3     1  UNL1       -0.3609
      2 O           4.2690   -2.0000    0.0000 O.3     1  UNL1       -0.3862
      3 O           2.5369   -1.0000    0.0000 O.3     1  UNL1       -0.3865
      4 O           2.5369    1.0000    0.0000 O.3     1  UNL1       -0.3865
      5 O           3.4030    2.5000    0.0000 O.3     1  UNL1       -0.3924
      6 O           6.8671    0.5000    0.0000 O.3     1  UNL1       -0.5054
      7 O           5.1350   -2.5000    0.0000 O.3     1  UNL1       -0.5062
      8 O           8.6270   -2.5347    0.0000 O.2     1  UNL1       -0.4595
      9 O           8.6155    0.5346    0.0000 O.2     1  UNL1       -0.2869
     10 C           4.2690   -1.0000    0.0000 C.3     1  UNL1        0.1139
     11 C           3.4030   -0.5000    0.0000 C.3     1  UNL1        0.1121
     12 C           5.1350   -0.5000    0.0000 C.3     1  UNL1        0.1193
     13 C           3.4030    0.5000    0.0000 C.3     1  UNL1        0.1117
     14 C           4.2690    1.0000    0.0000 C.3     1  UNL1        0.1108
     15 C           6.0010   -1.0000    0.0000 C.ar    1  UNL1        0.0673
     16 C           4.2690    2.0000    0.0000 C.3     1  UNL1        0.0729
     17 C           6.8671   -0.5000    0.0000 C.ar    1  UNL1        0.1404
     18 C           6.0010   -2.0000    0.0000 C.ar    1  UNL1        0.1296
     19 C           7.7331   -1.0000    0.0000 C.ar    1  UNL1        0.1058
     20 C           6.8671   -2.5000    0.0000 C.ar    1  UNL1        0.0234
     21 C           7.7331   -2.0000    0.0000 C.ar    1  UNL1        0.1458
     22 C           8.6270   -0.4653    0.0000 C.ar    1  UNL1        0.1963
     23 C           9.5331   -0.9792    0.0000 C.ar    1  UNL1        0.0237
     24 C           9.5331   -2.0208    0.0000 C.ar    1  UNL1        0.1062
     25 C          10.3972   -2.5242    0.0000 C.3     1  UNL1       -0.0062
     26 H           4.8059   -1.3100    0.0000 H       1  UNL1        0.0649
     27 H           3.4030   -1.1200    0.0000 H       1  UNL1        0.0647
     28 H           5.8711   -0.0750    0.0000 H       1  UNL1        0.0676
     29 H           3.4030    1.1200    0.0000 H       1  UNL1        0.0647
     30 H           4.8059    1.3100    0.0000 H       1  UNL1        0.0646
     31 H           4.8796    1.8923    0.0000 H       1  UNL1        0.0584
     32 H           4.4810    2.5826    0.0000 H       1  UNL1        0.0584
     33 H           3.7320   -2.3100    0.0000 H       1  UNL1        0.2100
     34 H           2.0000   -0.6900    0.0000 H       1  UNL1        0.2100
     35 H           2.0000    0.6900    0.0000 H       1  UNL1        0.2100
     36 H           6.8671   -3.1200    0.0000 H       1  UNL1        0.0691
     37 H           3.4030    3.1200    0.0000 H       1  UNL1        0.2095
     38 H           7.4040    0.8100    0.0000 H       1  UNL1        0.2922
     39 H           5.1350   -3.1200    0.0000 H       1  UNL1        0.2922
     40 H          10.0688   -0.6671    0.0000 H       1  UNL1        0.0689
     41 H          10.0851   -3.0599    0.0000 H       1  UNL1        0.0308
     42 H          10.9329   -2.8362    0.0000 H       1  UNL1        0.0308
     43 H          10.7093   -1.9884    0.0000 H       1  UNL1        0.0308
@<TRIPOS>BOND
     1     1    12    1
     2     1    14    1
     3    10     2    1
     4     2    33    1
     5    11     3    1
     6     3    34    1
     7    13     4    1
     8     4    35    1
     9     5    16    1
    10     5    37    1
    11     6    17    1
    12     6    38    1
    13     7    18    1
    14     7    39    1
    15     8    21   ar
    16     8    24   ar
    17     9    22    2
    18    10    11    1
    19    10    12    1
    20    10    26    1
    21    11    13    1
    22    11    27    1
    23    12    15    1
    24    12    28    1
    25    13    14    1
    26    13    29    1
    27    14    16    1
    28    14    30    1
    29    15    17   ar
    30    15    18   ar
    31    16    31    1
    32    16    32    1
    33    17    19   ar
    34    18    20   ar
    35    19    21   ar
    36    19    22   ar
    37    20    21   ar
    38    20    36    1
    39    22    23   ar
    40    23    24   ar
    41    23    40    1
    42    24    25    1
    43    25    41    1
    44    25    42    1
    45    25    43    1
