@<TRIPOS>MOLECULE
IMPHY003350
 50 54 0 0 0
SMALL
GASTEIGER

@<TRIPOS>ATOM
      1 O           2.8522    0.1467    0.0000 O.2     1  UNL1       -0.4177
      2 O           3.0332    3.3622    0.0000 O.3     1  UNL1       -0.4517
      3 O           4.4270    4.1670    0.0000 O.3     1  UNL1       -0.4526
      4 O           4.7357   -2.9060    0.0000 O.3     1  UNL1       -0.4910
      5 O           2.9291   -1.9404    0.0000 O.3     1  UNL1       -0.4885
      6 O           2.0000    1.6983    0.0000 O.2     1  UNL1       -0.2444
      7 N           7.3985   -3.2710    0.0000 N.3     1  UNL1       -0.3080
      8 C           4.6523    0.1537    0.0000 C.ar    1  UNL1        0.0373
      9 C           4.6362    1.1952    0.0000 C.ar    1  UNL1        0.0112
     10 C           5.5294   -0.3091    0.0000 C.ar    1  UNL1       -0.0068
     11 C           5.5796   -1.3497    0.0000 C.ar    1  UNL1        0.0071
     12 C           5.5022    1.6952    0.0000 C.ar    1  UNL1       -0.0127
     13 C           3.7542   -0.3741    0.0000 C.ar    1  UNL1        0.1853
     14 C           3.7702    1.6952    0.0000 C.ar    1  UNL1        0.1131
     15 C           6.4669   -1.8108    0.0000 C.3     1  UNL1       -0.0107
     16 C           4.6991   -1.9067    0.0000 C.ar    1  UNL1        0.1690
     17 C           3.7803   -1.4156    0.0000 C.ar    1  UNL1        0.2052
     18 C           6.3751    0.2088    0.0000 C.ar    1  UNL1       -0.0529
     19 C           3.7702    2.6952    0.0000 C.ar    1  UNL1        0.1808
     20 C           6.3617    1.2004    0.0000 C.ar    1  UNL1       -0.0533
     21 C           6.5112   -2.8099    0.0000 C.3     1  UNL1        0.0024
     22 C           5.5022    2.6952    0.0000 C.ar    1  UNL1       -0.0084
     23 C           4.6362    3.1952    0.0000 C.ar    1  UNL1        0.1677
     24 C           2.8602    1.1883    0.0000 C.ar    1  UNL1        0.3489
     25 C           3.4383    4.2700    0.0000 C.3     1  UNL1        0.2333
     26 C           7.4428   -4.2700    0.0000 C.3     1  UNL1       -0.0130
     27 C           8.2415   -2.7332    0.0000 C.3     1  UNL1       -0.0130
     28 C           5.6194   -3.3740    0.0000 C.3     1  UNL1        0.0790
     29 C           2.9580   -2.9400    0.0000 C.3     1  UNL1        0.0791
     30 H           7.0816   -1.8914    0.0000 H       1  UNL1        0.0327
     31 H           6.6529   -1.2194    0.0000 H       1  UNL1        0.0327
     32 H           6.9181   -0.0906    0.0000 H       1  UNL1        0.0624
     33 H           6.8963    1.5144    0.0000 H       1  UNL1        0.0624
     34 H           5.8964   -2.7294    0.0000 H       1  UNL1        0.0429
     35 H           6.3251   -3.4013    0.0000 H       1  UNL1        0.0429
     36 H           6.0392    3.0052    0.0000 H       1  UNL1        0.0661
     37 H           3.5670    4.8765    0.0000 H       1  UNL1        0.1166
     38 H           2.8487    4.4618    0.0000 H       1  UNL1        0.1166
     39 H           6.8234   -4.2975    0.0000 H       1  UNL1        0.0391
     40 H           7.4702   -4.8894    0.0000 H       1  UNL1        0.0391
     41 H           8.5750   -3.2558    0.0000 H       1  UNL1        0.0391
     42 H           8.7642   -2.3997    0.0000 H       1  UNL1        0.0391
     43 H           7.9080   -2.2105    0.0000 H       1  UNL1        0.0391
     44 H           8.0622   -4.2426    0.0000 H       1  UNL1        0.0391
     45 H           5.3293   -3.9219    0.0000 H       1  UNL1        0.0660
     46 H           6.1674   -3.6641    0.0000 H       1  UNL1        0.0660
     47 H           5.9096   -2.8260    0.0000 H       1  UNL1        0.0660
     48 H           2.3382   -2.9579    0.0000 H       1  UNL1        0.0660
     49 H           2.9759   -3.5597    0.0000 H       1  UNL1        0.0660
     50 H           3.5777   -2.9221    0.0000 H       1  UNL1        0.0660
@<TRIPOS>BOND
     1     1    13   ar
     2     1    24   ar
     3     2    19    1
     4     2    25    1
     5     3    23    1
     6     3    25    1
     7     4    16    1
     8     4    28    1
     9     5    17    1
    10     5    29    1
    11     6    24    2
    12     7    21    1
    13     7    26    1
    14     7    27    1
    15     8     9   ar
    16     8    10   ar
    17     8    13   ar
    18     9    12   ar
    19     9    14   ar
    20    10    11   ar
    21    10    18   ar
    22    11    15    1
    23    11    16   ar
    24    12    20   ar
    25    12    22   ar
    26    13    17   ar
    27    14    19   ar
    28    14    24   ar
    29    15    21    1
    30    15    30    1
    31    15    31    1
    32    16    17   ar
    33    18    20   ar
    34    18    32    1
    35    19    23   ar
    36    20    33    1
    37    21    34    1
    38    21    35    1
    39    22    23   ar
    40    22    36    1
    41    25    37    1
    42    25    38    1
    43    26    39    1
    44    26    40    1
    45    26    44    1
    46    27    41    1
    47    27    42    1
    48    27    43    1
    49    28    45    1
    50    28    46    1
    51    28    47    1
    52    29    48    1
    53    29    49    1
    54    29    50    1
