@<TRIPOS>MOLECULE
IMPHY007280
 40 41 0 0 0
SMALL
GASTEIGER

@<TRIPOS>ATOM
      1 O           2.5369   -0.5000    0.0000 O.3     1  UNL1       -0.3944
      2 C           6.8671    0.0000    0.0000 C.3     1  UNL1        0.0097
      3 C           7.7610   -0.5347    0.0000 C.3     1  UNL1       -0.0310
      4 C           6.8671    1.0000    0.0000 C.2     1  UNL1       -0.0633
      5 C           8.6671   -0.0208    0.0000 C.3     1  UNL1       -0.0459
      6 C           6.0010   -0.5000    0.0000 C.2     1  UNL1       -0.0743
      7 C           6.0010    1.5000    0.0000 C.3     1  UNL1       -0.0272
      8 C           5.1350    0.0000    0.0000 C.2     1  UNL1       -0.0673
      9 C           5.1350    1.0000    0.0000 C.3     1  UNL1       -0.0277
     10 C           8.6671    1.0208    0.0000 C.3     1  UNL1       -0.0342
     11 C           6.8671   -1.0000    0.0000 C.3     1  UNL1       -0.0521
     12 C           7.7610    1.5346    0.0000 C.2     1  UNL1       -0.0839
     13 C           7.7494   -1.5346    0.0000 C.3     1  UNL1       -0.0613
     14 C           4.2690   -0.5000    0.0000 C.3     1  UNL1        0.0005
     15 C           3.4030    0.0000    0.0000 C.3     1  UNL1        0.0504
     16 C           4.2690   -1.5000    0.0000 C.3     1  UNL1       -0.0566
     17 H           8.2949   -0.8499    0.0000 H       1  UNL1        0.0310
     18 H           8.8761   -0.6045    0.0000 H       1  UNL1        0.0271
     19 H           9.2779    0.0852    0.0000 H       1  UNL1        0.0271
     20 H           6.0010   -1.1200    0.0000 H       1  UNL1        0.0580
     21 H           6.3996    1.9749    0.0000 H       1  UNL1        0.0313
     22 H           5.6025    1.9749    0.0000 H       1  UNL1        0.0313
     23 H           4.9230    1.5826    0.0000 H       1  UNL1        0.0313
     24 H           4.5244    0.8923    0.0000 H       1  UNL1        0.0313
     25 H           9.2779    0.9147    0.0000 H       1  UNL1        0.0307
     26 H           8.8761    1.6045    0.0000 H       1  UNL1        0.0307
     27 H           6.2471   -1.0000    0.0000 H       1  UNL1        0.0241
     28 H           6.8671   -1.6200    0.0000 H       1  UNL1        0.0241
     29 H           7.4871   -1.0000    0.0000 H       1  UNL1        0.0241
     30 H           7.7538    2.1546    0.0000 H       1  UNL1        0.0572
     31 H           7.1295   -1.5275    0.0000 H       1  UNL1        0.0233
     32 H           7.7423   -2.1546    0.0000 H       1  UNL1        0.0233
     33 H           8.3694   -1.5418    0.0000 H       1  UNL1        0.0233
     34 H           4.8059   -0.8100    0.0000 H       1  UNL1        0.0365
     35 H           3.8015    0.4749    0.0000 H       1  UNL1        0.0563
     36 H           3.0044    0.4749    0.0000 H       1  UNL1        0.0563
     37 H           3.6490   -1.5000    0.0000 H       1  UNL1        0.0236
     38 H           4.2690   -2.1200    0.0000 H       1  UNL1        0.0236
     39 H           4.8890   -1.5000    0.0000 H       1  UNL1        0.0236
     40 H           2.0000   -0.1900    0.0000 H       1  UNL1        0.2094
@<TRIPOS>BOND
     1     1    15    1
     2     1    40    1
     3     2     3    1
     4     2     4    1
     5     2     6    1
     6     2    11    1
     7     3     5    1
     8     3    13    1
     9     3    17    1
    10     4     7    1
    11     4    12    2
    12     5    10    1
    13     5    18    1
    14     5    19    1
    15     6     8    2
    16     6    20    1
    17     7     9    1
    18     7    21    1
    19     7    22    1
    20     8     9    1
    21     8    14    1
    22     9    23    1
    23     9    24    1
    24    10    12    1
    25    10    25    1
    26    10    26    1
    27    11    27    1
    28    11    28    1
    29    11    29    1
    30    12    30    1
    31    13    31    1
    32    13    32    1
    33    13    33    1
    34    14    15    1
    35    14    16    1
    36    14    34    1
    37    15    35    1
    38    15    36    1
    39    16    37    1
    40    16    38    1
    41    16    39    1
