@<TRIPOS>MOLECULE
IMPHY013621
 106 111 0 0 0
SMALL
GASTEIGER

@<TRIPOS>ATOM
      1 O          11.3217    4.6498    0.0000 O.3     1  UNL1       -0.3869
      2 O           8.9073   -1.0973    0.0000 O.3     1  UNL1       -0.3444
      3 O           6.0482    1.9056    0.0000 O.3     1  UNL1       -0.4798
      4 O           8.0090    3.2656    0.0000 O.3     1  UNL1       -0.4798
      5 O           6.4692    0.6909    0.0000 O.2     1  UNL1       -0.2498
      6 O           6.7397    3.0619    0.0000 O.2     1  UNL1       -0.2498
      7 O           7.1753   -1.0973    0.0000 O.3     1  UNL1       -0.3395
      8 O           8.9073   -3.0973    0.0000 O.3     1  UNL1       -0.4526
      9 O           8.0413   -3.5973    0.0000 O.3     1  UNL1       -0.3726
     10 O           5.4432   -3.0973    0.0000 O.3     1  UNL1       -0.3293
     11 O           6.3092   -4.5973    0.0000 O.3     1  UNL1       -0.4785
     12 O           5.4432   -0.0973    0.0000 O.3     1  UNL1       -0.3924
     13 O           5.4432   -4.0973    0.0000 O.2     1  UNL1       -0.2475
     14 O           4.4727   -1.6028    0.0000 O.3     1  UNL1       -0.4259
     15 O           9.7734   -1.5973    0.0000 O.2     1  UNL1       -0.2508
     16 O           4.0704   -3.9176    0.0000 O.3     1  UNL1       -0.3734
     17 O           3.1284   -4.6513    0.0000 O.3     1  UNL1       -0.3915
     18 O           2.0000   -2.3654    0.0000 O.2     1  UNL1       -0.2817
     19 O           3.0878   -0.4813    0.0000 O.2     1  UNL1       -0.2415
     20 C          10.7439    3.0579    0.0000 C.3     1  UNL1        0.0044
     21 C          10.7324    2.0580    0.0000 C.3     1  UNL1       -0.0269
     22 C           9.8323    1.5337    0.0000 C.3     1  UNL1       -0.0219
     23 C           8.9322    2.0580    0.0000 C.3     1  UNL1       -0.0091
     24 C          11.7507    2.4394    0.0000 C.3     1  UNL1       -0.0378
     25 C           9.8562    3.6029    0.0000 C.3     1  UNL1       -0.0441
     26 C          12.9287    2.5326    0.0000 C.3     1  UNL1       -0.0171
     27 C          11.5329    3.6723    0.0000 C.3     1  UNL1        0.0822
     28 C          11.5069    1.4255    0.0000 C.3     1  UNL1       -0.0486
     29 C           8.9443    3.0996    0.0000 C.3     1  UNL1       -0.0476
     30 C           9.8449    0.4488    0.0000 C.3     1  UNL1       -0.0205
     31 C           7.9823    1.5337    0.0000 C.3     1  UNL1        0.1690
     32 C          12.4844    1.6368    0.0000 C.3     1  UNL1       -0.0461
     33 C          12.5052    3.4386    0.0000 C.2     1  UNL1       -0.0449
     34 C          10.4721    0.7652    0.0000 C.3     1  UNL1       -0.0589
     35 C           8.9073   -0.0973    0.0000 C.3     1  UNL1        0.0639
     36 C           7.9698    0.4488    0.0000 C.3     1  UNL1       -0.0000
     37 C           6.9824    1.5491    0.0000 C.2     1  UNL1        0.3222
     38 C           7.4958    2.4073    0.0000 C.2     1  UNL1        0.3222
     39 C          13.1377    4.2131    0.0000 C.2     1  UNL1       -0.0967
     40 C           8.0413   -1.5973    0.0000 C.3     1  UNL1        0.2004
     41 C           8.0413   -2.5973    0.0000 C.3     1  UNL1        0.1949
     42 C           7.1753   -3.0973    0.0000 C.3     1  UNL1        0.2329
     43 C           6.3092   -1.5973    0.0000 C.3     1  UNL1        0.1143
     44 C           6.3092   -2.5973    0.0000 C.3     1  UNL1        0.1339
     45 C           6.3092   -3.5973    0.0000 C.2     1  UNL1        0.3435
     46 C           5.4432   -1.0973    0.0000 C.3     1  UNL1        0.0731
     47 C           9.7734   -2.5973    0.0000 C.2     1  UNL1        0.3078
     48 C           4.5772   -2.5973    0.0000 C.3     1  UNL1        0.2444
     49 C          10.6394   -3.0973    0.0000 C.3     1  UNL1        0.0473
     50 C           3.6636   -3.0041    0.0000 C.3     1  UNL1        0.2202
     51 C          10.6394   -4.0973    0.0000 C.3     1  UNL1       -0.0367
     52 C           2.9945   -2.2609    0.0000 C.2     1  UNL1        0.2789
     53 C           2.9205   -3.6732    0.0000 C.3     1  UNL1        0.0865
     54 C           3.4945   -1.3949    0.0000 C.2     1  UNL1        0.3806
     55 C          11.5054   -4.5973    0.0000 C.3     1  UNL1       -0.0622
     56 C           9.7734   -4.5973    0.0000 C.3     1  UNL1       -0.0622
     57 H          10.7225    1.2081    0.0000 H       1  UNL1        0.0312
     58 H           8.2028    2.4943    0.0000 H       1  UNL1        0.0322
     59 H          11.2790    2.0370    0.0000 H       1  UNL1        0.0277
     60 H          11.9879    1.8666    0.0000 H       1  UNL1        0.0277
     61 H          10.2662    4.0680    0.0000 H       1  UNL1        0.0272
     62 H           9.4682    4.0864    0.0000 H       1  UNL1        0.0272
     63 H          13.7551    2.3339    0.0000 H       1  UNL1        0.0347
     64 H          10.9501    3.8839    0.0000 H       1  UNL1        0.0646
     65 H          11.0178    1.0446    0.0000 H       1  UNL1        0.0268
     66 H          11.7695    0.8638    0.0000 H       1  UNL1        0.0268
     67 H           8.7420    3.6856    0.0000 H       1  UNL1        0.0269
     68 H           8.3322    3.0005    0.0000 H       1  UNL1        0.0269
     69 H          10.0607   -0.1324    0.0000 H       1  UNL1        0.0296
     70 H          10.4544    0.5619    0.0000 H       1  UNL1        0.0296
     71 H          12.4772    1.0168    0.0000 H       1  UNL1        0.0271
     72 H          13.0872    1.4918    0.0000 H       1  UNL1        0.0271
     73 H           9.9957    0.3685    0.0000 H       1  UNL1        0.0235
     74 H          10.8688    0.2887    0.0000 H       1  UNL1        0.0235
     75 H          10.9486    1.1619    0.0000 H       1  UNL1        0.0235
     76 H           8.3698   -0.4063    0.0000 H       1  UNL1        0.0597
     77 H           7.3602    0.5619    0.0000 H       1  UNL1        0.0306
     78 H           7.7540   -0.1324    0.0000 H       1  UNL1        0.0306
     79 H          11.7810    5.0662    0.0000 H       1  UNL1        0.2102
     80 H          13.7497    4.1136    0.0000 H       1  UNL1        0.0535
     81 H          12.9179    4.7928    0.0000 H       1  UNL1        0.0535
     82 H           8.5782   -1.9073    0.0000 H       1  UNL1        0.0950
     83 H           5.5671    1.5144    0.0000 H       1  UNL1        0.2951
     84 H           7.7074    3.8072    0.0000 H       1  UNL1        0.2951
     85 H           8.0413   -3.2173    0.0000 H       1  UNL1        0.0822
     86 H           6.3092   -0.9773    0.0000 H       1  UNL1        0.0647
     87 H           5.7723   -2.2873    0.0000 H       1  UNL1        0.0660
     88 H           4.8326   -0.9897    0.0000 H       1  UNL1        0.0584
     89 H           5.2312   -1.6799    0.0000 H       1  UNL1        0.0584
     90 H           8.0413   -4.2173    0.0000 H       1  UNL1        0.2111
     91 H           4.5447   -3.2165    0.0000 H       1  UNL1        0.1093
     92 H           5.7723   -4.9073    0.0000 H       1  UNL1        0.2951
     93 H           4.9063    0.2127    0.0000 H       1  UNL1        0.2095
     94 H          11.2500   -3.2050    0.0000 H       1  UNL1        0.0380
     95 H          10.8514   -2.5147    0.0000 H       1  UNL1        0.0380
     96 H          10.1024   -3.7873    0.0000 H       1  UNL1        0.0301
     97 H           2.5920   -3.1474    0.0000 H       1  UNL1        0.0592
     98 H           2.3456   -3.9054    0.0000 H       1  UNL1        0.0592
     99 H           4.6870   -3.9824    0.0000 H       1  UNL1        0.2111
    100 H          11.1954   -5.1343    0.0000 H       1  UNL1        0.0232
    101 H          12.0423   -4.9073    0.0000 H       1  UNL1        0.0232
    102 H          11.8154   -4.0604    0.0000 H       1  UNL1        0.0232
    103 H           9.4634   -4.0604    0.0000 H       1  UNL1        0.0232
    104 H           9.2364   -4.9073    0.0000 H       1  UNL1        0.0232
    105 H          10.0834   -5.1343    0.0000 H       1  UNL1        0.0232
    106 H           2.6677   -5.0662    0.0000 H       1  UNL1        0.2095
@<TRIPOS>BOND
     1    27     1    1
     2     1    79    1
     3    35     2    1
     4    40     2    1
     5     3    37    1
     6     3    83    1
     7     4    38    1
     8     4    84    1
     9     5    37    2
    10     6    38    2
    11     7    40    1
    12     7    43    1
    13    41     8    1
    14     8    47    1
    15    42     9    1
    16     9    90    1
    17    44    10    1
    18    48    10    1
    19    11    45    1
    20    11    92    1
    21    12    46    1
    22    12    93    1
    23    13    45    2
    24    14    48    1
    25    14    54    1
    26    15    47    2
    27    50    16    1
    28    16    99    1
    29    17    53    1
    30    17   106    1
    31    18    52    2
    32    19    54    2
    33    20    21    1
    34    20    24    1
    35    20    25    1
    36    20    27    1
    37    21    22    1
    38    21    28    1
    39    21    57    1
    40    22    23    1
    41    22    30    1
    42    22    34    1
    43    23    29    1
    44    23    31    1
    45    23    58    1
    46    24    26    1
    47    24    59    1
    48    24    60    1
    49    25    29    1
    50    25    61    1
    51    25    62    1
    52    26    32    1
    53    26    33    1
    54    26    63    1
    55    27    33    1
    56    27    64    1
    57    28    32    1
    58    28    65    1
    59    28    66    1
    60    29    67    1
    61    29    68    1
    62    30    35    1
    63    30    69    1
    64    30    70    1
    65    31    36    1
    66    31    37    1
    67    31    38    1
    68    32    71    1
    69    32    72    1
    70    33    39    2
    71    34    73    1
    72    34    74    1
    73    34    75    1
    74    35    36    1
    75    35    76    1
    76    36    77    1
    77    36    78    1
    78    39    80    1
    79    39    81    1
    80    40    41    1
    81    40    82    1
    82    41    42    1
    83    41    85    1
    84    42    44    1
    85    42    45    1
    86    43    44    1
    87    43    46    1
    88    43    86    1
    89    44    87    1
    90    46    88    1
    91    46    89    1
    92    47    49    1
    93    48    50    1
    94    48    91    1
    95    49    51    1
    96    49    94    1
    97    49    95    1
    98    50    52    1
    99    50    53    1
   100    51    55    1
   101    51    56    1
   102    51    96    1
   103    52    54    1
   104    53    97    1
   105    53    98    1
   106    55   100    1
   107    55   101    1
   108    55   102    1
   109    56   103    1
   110    56   104    1
   111    56   105    1
