@<TRIPOS>MOLECULE
IMPHY014429
 57 59 0 0 0
SMALL
GASTEIGER

@<TRIPOS>ATOM
      1 O           3.7320   -1.0731    0.0000 O.3     1  UNL1       -0.4645
      2 O           9.8602   -0.5489    0.0000 O.2     1  UNL1       -0.2927
      3 O           4.6277    3.1077    0.0000 O.3     1  UNL1       -0.4572
      4 O           4.1665    1.3864    0.0000 O.2     1  UNL1       -0.2453
      5 O           2.8660    0.4269    0.0000 O.2     1  UNL1       -0.2512
      6 C           6.3301   -0.5731    0.0000 C.3     1  UNL1       -0.0218
      7 C           7.1962   -1.0731    0.0000 C.3     1  UNL1       -0.0192
      8 C           7.1962   -2.0731    0.0000 C.3     1  UNL1       -0.0072
      9 C           5.4641   -1.0731    0.0000 C.3     1  UNL1       -0.0010
     10 C           6.3301   -2.5731    0.0000 C.3     1  UNL1       -0.0433
     11 C           5.4641   -2.0731    0.0000 C.3     1  UNL1       -0.0458
     12 C           5.8301    0.2929    0.0000 C.3     1  UNL1       -0.0428
     13 C           8.0901   -0.5384    0.0000 C.3     1  UNL1        0.0140
     14 C           8.0901   -2.6077    0.0000 C.2     1  UNL1       -0.0631
     15 C           6.8301    0.2929    0.0000 C.3     1  UNL1       -0.0589
     16 C           7.1962   -3.0731    0.0000 C.3     1  UNL1       -0.0556
     17 C           4.5981   -0.5731    0.0000 C.3     1  UNL1        0.0958
     18 C           8.9962   -1.0523    0.0000 C.2     1  UNL1        0.1564
     19 C           6.3301    1.1590    0.0000 C.3     1  UNL1       -0.0206
     20 C           8.9962   -2.0939    0.0000 C.2     1  UNL1       -0.0197
     21 C           8.0785   -3.6077    0.0000 C.3     1  UNL1       -0.0429
     22 C           5.8301    2.0250    0.0000 C.2     1  UNL1        0.0359
     23 C           6.2369    2.9385    0.0000 C.2     1  UNL1       -0.0371
     24 C           4.8356    2.1295    0.0000 C.2     1  UNL1        0.3352
     25 C           2.8660   -0.5731    0.0000 C.2     1  UNL1        0.3040
     26 C           5.4937    3.6077    0.0000 C.3     1  UNL1        0.1118
     27 C           2.0000   -1.0731    0.0000 C.3     1  UNL1        0.0332
     28 H           7.1896   -0.2231    0.0000 H       1  UNL1        0.0319
     29 H           5.4641   -0.4531    0.0000 H       1  UNL1        0.0339
     30 H           5.9316   -3.0480    0.0000 H       1  UNL1        0.0274
     31 H           6.7287   -3.0480    0.0000 H       1  UNL1        0.0274
     32 H           4.8535   -1.9654    0.0000 H       1  UNL1        0.0269
     33 H           5.2520   -2.6557    0.0000 H       1  UNL1        0.0269
     34 H           5.3552    0.6915    0.0000 H       1  UNL1        0.0274
     35 H           5.3552   -0.1056    0.0000 H       1  UNL1        0.0274
     36 H           8.4837   -0.0594    0.0000 H       1  UNL1        0.0348
     37 H           7.6855   -0.0686    0.0000 H       1  UNL1        0.0348
     38 H           7.3671   -0.0171    0.0000 H       1  UNL1        0.0235
     39 H           7.1401    0.8299    0.0000 H       1  UNL1        0.0235
     40 H           6.2932    0.6029    0.0000 H       1  UNL1        0.0235
     41 H           6.5762   -3.0731    0.0000 H       1  UNL1        0.0238
     42 H           7.1962   -3.6931    0.0000 H       1  UNL1        0.0238
     43 H           7.8162   -3.0731    0.0000 H       1  UNL1        0.0238
     44 H           4.9966   -0.0981    0.0000 H       1  UNL1        0.0700
     45 H           4.1996   -0.0981    0.0000 H       1  UNL1        0.0700
     46 H           6.8051    0.7604    0.0000 H       1  UNL1        0.0315
     47 H           6.8051    1.5575    0.0000 H       1  UNL1        0.0315
     48 H           9.5319   -2.4060    0.0000 H       1  UNL1        0.0652
     49 H           7.4586   -3.6005    0.0000 H       1  UNL1        0.0275
     50 H           8.0714   -4.2276    0.0000 H       1  UNL1        0.0275
     51 H           8.6985   -3.6148    0.0000 H       1  UNL1        0.0275
     52 H           6.8433    3.0674    0.0000 H       1  UNL1        0.0610
     53 H           5.9545    4.0225    0.0000 H       1  UNL1        0.0743
     54 H           5.1293    4.1093    0.0000 H       1  UNL1        0.0743
     55 H           1.6900   -0.5361    0.0000 H       1  UNL1        0.0342
     56 H           1.4631   -1.3831    0.0000 H       1  UNL1        0.0342
     57 H           2.3100   -1.6100    0.0000 H       1  UNL1        0.0342
@<TRIPOS>BOND
     1     1    17    1
     2     1    25    1
     3     2    18    2
     4     3    24    1
     5     3    26    1
     6     4    24    2
     7     5    25    2
     8     6     7    1
     9     6     9    1
    10     6    12    1
    11     6    15    1
    12     7     8    1
    13     7    13    1
    14     7    28    1
    15     8    10    1
    16     8    14    1
    17     8    16    1
    18     9    11    1
    19     9    17    1
    20     9    29    1
    21    10    11    1
    22    10    30    1
    23    10    31    1
    24    11    32    1
    25    11    33    1
    26    12    19    1
    27    12    34    1
    28    12    35    1
    29    13    18    1
    30    13    36    1
    31    13    37    1
    32    14    20    2
    33    14    21    1
    34    15    38    1
    35    15    39    1
    36    15    40    1
    37    16    41    1
    38    16    42    1
    39    16    43    1
    40    17    44    1
    41    17    45    1
    42    18    20    1
    43    19    22    1
    44    19    46    1
    45    19    47    1
    46    20    48    1
    47    21    49    1
    48    21    50    1
    49    21    51    1
    50    22    23    2
    51    22    24    1
    52    23    26    1
    53    23    52    1
    54    25    27    1
    55    26    53    1
    56    26    54    1
    57    27    55    1
    58    27    56    1
    59    27    57    1
