@<TRIPOS>MOLECULE
IMPHY003777
 43 44 0 0 0
SMALL
GASTEIGER

@<TRIPOS>ATOM
      1 O           7.0671   -0.9466    0.0000 O.3     1  UNL1       -0.4532
      2 O           3.7320   -0.7796    0.0000 O.3     1  UNL1       -0.4605
      3 O           7.1620   -2.7204    0.0000 O.2     1  UNL1       -0.2453
      4 O           2.8660    0.7204    0.0000 O.2     1  UNL1       -0.2512
      5 C           5.4641   -0.7796    0.0000 C.3     1  UNL1        0.0683
      6 C           4.5981   -0.2796    0.0000 C.3     1  UNL1        0.1173
      7 C           6.3301   -0.2796    0.0000 C.3     1  UNL1        0.1322
      8 C           4.5981    0.7204    0.0000 C.3     1  UNL1        0.0060
      9 C           5.6733   -1.7514    0.0000 C.2     1  UNL1        0.0400
     10 C           6.3301    0.7204    0.0000 C.2     1  UNL1       -0.0443
     11 C           5.4641    1.2204    0.0000 C.2     1  UNL1       -0.0730
     12 C           6.6620   -1.8544    0.0000 C.2     1  UNL1        0.3357
     13 C           7.1962    1.2204    0.0000 C.2     1  UNL1       -0.0728
     14 C           7.1962    2.2204    0.0000 C.3     1  UNL1       -0.0284
     15 C           6.3301    2.7204    0.0000 C.3     1  UNL1       -0.0308
     16 C           5.4641    2.2204    0.0000 C.2     1  UNL1       -0.0846
     17 C           5.0055   -2.4957    0.0000 C.2     1  UNL1       -0.0882
     18 C           6.6515    0.2241    0.0000 C.3     1  UNL1       -0.0437
     19 C           8.0622    0.7204    0.0000 C.3     1  UNL1       -0.0437
     20 C           2.8660   -0.2796    0.0000 C.2     1  UNL1        0.3042
     21 C           2.0000   -0.7796    0.0000 C.3     1  UNL1        0.0332
     22 H           4.7771   -1.2801    0.0000 H       1  UNL1        0.0427
     23 H           4.5981   -0.8996    0.0000 H       1  UNL1        0.0744
     24 H           7.1071    0.0652    0.0000 H       1  UNL1        0.0787
     25 H           4.3860    1.3031    0.0000 H       1  UNL1        0.0346
     26 H           3.9875    0.6128    0.0000 H       1  UNL1        0.0346
     27 H           6.1181    1.3031    0.0000 H       1  UNL1        0.0608
     28 H           7.8067    2.1128    0.0000 H       1  UNL1        0.0313
     29 H           7.4082    2.8031    0.0000 H       1  UNL1        0.0313
     30 H           6.7287    3.1954    0.0000 H       1  UNL1        0.0310
     31 H           5.9316    3.1954    0.0000 H       1  UNL1        0.0310
     32 H           4.9272    2.5304    0.0000 H       1  UNL1        0.0572
     33 H           4.3988   -2.3678    0.0000 H       1  UNL1        0.0540
     34 H           5.1981   -3.0850    0.0000 H       1  UNL1        0.0540
     35 H           6.2529   -0.2508    0.0000 H       1  UNL1        0.0274
     36 H           7.1264   -0.1744    0.0000 H       1  UNL1        0.0274
     37 H           7.0500    0.6991    0.0000 H       1  UNL1        0.0274
     38 H           7.7522    0.1835    0.0000 H       1  UNL1        0.0274
     39 H           8.5991    0.4104    0.0000 H       1  UNL1        0.0274
     40 H           8.3722    1.2574    0.0000 H       1  UNL1        0.0274
     41 H           1.6900   -0.2426    0.0000 H       1  UNL1        0.0342
     42 H           1.4631   -1.0896    0.0000 H       1  UNL1        0.0342
     43 H           2.3100   -1.3165    0.0000 H       1  UNL1        0.0342
@<TRIPOS>BOND
     1     1     7    1
     2     1    12    1
     3     6     2    1
     4     2    20    1
     5     3    12    2
     6     4    20    2
     7     5     6    1
     8     5     7    1
     9     5     9    1
    10     5    22    1
    11     6     8    1
    12     6    23    1
    13     7    10    1
    14     7    24    1
    15     8    11    1
    16     8    25    1
    17     8    26    1
    18     9    12    1
    19     9    17    2
    20    10    13    2
    21    10    27    1
    22    11    16    2
    23    11    18    1
    24    13    14    1
    25    13    19    1
    26    14    15    1
    27    14    28    1
    28    14    29    1
    29    15    16    1
    30    15    30    1
    31    15    31    1
    32    16    32    1
    33    17    33    1
    34    17    34    1
    35    18    35    1
    36    18    36    1
    37    18    37    1
    38    19    38    1
    39    19    39    1
    40    19    40    1
    41    20    21    1
    42    21    41    1
    43    21    42    1
    44    21    43    1
