@<TRIPOS>MOLECULE
IMPHY001173
 30 32 0 0 0
SMALL
GASTEIGER

@<TRIPOS>ATOM
      1 O           2.8641    0.4462    0.0000 O.3     1  UNL1       -0.4551
      2 O           3.7817   -2.1092    0.0000 O.3     1  UNL1       -0.3835
      3 O           7.3424   -0.8793    0.0000 O.2     1  UNL1       -0.4628
      4 O           5.5301    1.9254    0.0000 O.3     1  UNL1       -0.4936
      5 O           3.7817    1.9600    0.0000 O.2     1  UNL1       -0.2448
      6 C           3.7702   -1.1093    0.0000 C.3     1  UNL1        0.1177
      7 C           2.8641   -0.5954    0.0000 C.3     1  UNL1        0.1304
      8 C           4.6641   -0.5746    0.0000 C.ar    1  UNL1        0.0054
      9 C           4.6641    0.4254    0.0000 C.ar    1  UNL1        0.1070
     10 C           5.5301   -1.0746    0.0000 C.ar    1  UNL1       -0.0120
     11 C           5.5301    0.9254    0.0000 C.ar    1  UNL1        0.1451
     12 C           6.3961    0.4254    0.0000 C.ar    1  UNL1        0.0625
     13 C           6.3961   -0.5746    0.0000 C.ar    1  UNL1        0.1387
     14 C           3.7702    0.9601    0.0000 C.2     1  UNL1        0.3435
     15 C           2.0000   -1.0988    0.0000 C.3     1  UNL1       -0.0249
     16 C           7.3424    0.7301    0.0000 C.ar    1  UNL1       -0.0126
     17 C           7.9260   -0.0746    0.0000 C.ar    1  UNL1        0.0932
     18 C           6.3961    2.4254    0.0000 C.3     1  UNL1        0.0788
     19 H           3.2362   -1.4244    0.0000 H       1  UNL1        0.0681
     20 H           2.3266   -0.2865    0.0000 H       1  UNL1        0.0761
     21 H           5.5301   -1.6946    0.0000 H       1  UNL1        0.0658
     22 H           1.6879   -0.5630    0.0000 H       1  UNL1        0.0266
     23 H           1.4643   -1.4108    0.0000 H       1  UNL1        0.0266
     24 H           2.3121   -1.6345    0.0000 H       1  UNL1        0.0266
     25 H           3.2484   -2.4254    0.0000 H       1  UNL1        0.2104
     26 H           7.5350    1.3194    0.0000 H       1  UNL1        0.0656
     27 H           8.5460   -0.0746    0.0000 H       1  UNL1        0.1030
     28 H           6.7062    1.8885    0.0000 H       1  UNL1        0.0660
     29 H           6.9331    2.7354    0.0000 H       1  UNL1        0.0660
     30 H           6.0862    2.9623    0.0000 H       1  UNL1        0.0660
@<TRIPOS>BOND
     1     1     7    1
     2     1    14    1
     3     6     2    1
     4     2    25    1
     5     3    13   ar
     6     3    17   ar
     7     4    11    1
     8     4    18    1
     9     5    14    2
    10     6     7    1
    11     6     8    1
    12     6    19    1
    13     7    15    1
    14     7    20    1
    15     8     9   ar
    16     8    10   ar
    17     9    11   ar
    18     9    14    1
    19    10    13   ar
    20    10    21    1
    21    11    12   ar
    22    12    13   ar
    23    12    16   ar
    24    15    22    1
    25    15    23    1
    26    15    24    1
    27    16    17   ar
    28    16    26    1
    29    17    27    1
    30    18    28    1
    31    18    29    1
    32    18    30    1
