@<TRIPOS>MOLECULE
IMPHY016659
 35 35 0 0 0
SMALL
GASTEIGER

@<TRIPOS>ATOM
      1 O           4.5981    1.7500    0.0000 O.3     1  UNL1       -0.4219
      2 O           2.8660    0.7500    0.0000 O.3     1  UNL1       -0.4914
      3 O           6.3301    1.7500    0.0000 O.2     1  UNL1       -0.2501
      4 C           5.4641    3.2500    0.0000 C.3     1  UNL1        0.0512
      5 C           4.5981   -1.2500    0.0000 C.ar    1  UNL1       -0.0400
      6 C           4.5981    0.7500    0.0000 C.ar    1  UNL1        0.1730
      7 C           3.7320    0.2500    0.0000 C.ar    1  UNL1        0.1625
      8 C           5.4641    2.2500    0.0000 C.2     1  UNL1        0.3150
      9 C           6.3301    3.7500    0.0000 C.3     1  UNL1       -0.0525
     10 C           4.5981    3.7500    0.0000 C.3     1  UNL1       -0.0525
     11 C           3.7320   -0.7500    0.0000 C.ar    1  UNL1       -0.0128
     12 C           4.5981   -2.2500    0.0000 C.3     1  UNL1       -0.0096
     13 C           5.4641   -0.7500    0.0000 C.ar    1  UNL1       -0.0546
     14 C           5.4641    0.2500    0.0000 C.ar    1  UNL1       -0.0153
     15 C           5.4641   -2.7500    0.0000 C.2     1  UNL1       -0.0868
     16 C           2.0000    0.2500    0.0000 C.3     1  UNL1        0.0790
     17 C           5.4641   -3.7500    0.0000 C.2     1  UNL1       -0.1023
     18 H           5.4641    3.8700    0.0000 H       1  UNL1        0.0408
     19 H           6.6401    3.2131    0.0000 H       1  UNL1        0.0237
     20 H           6.8671    4.0600    0.0000 H       1  UNL1        0.0237
     21 H           6.0201    4.2869    0.0000 H       1  UNL1        0.0237
     22 H           4.9081    4.2869    0.0000 H       1  UNL1        0.0237
     23 H           4.0611    4.0600    0.0000 H       1  UNL1        0.0237
     24 H           4.2881    3.2131    0.0000 H       1  UNL1        0.0237
     25 H           3.1951   -1.0600    0.0000 H       1  UNL1        0.0658
     26 H           3.9875   -2.1423    0.0000 H       1  UNL1        0.0355
     27 H           4.3860   -2.8326    0.0000 H       1  UNL1        0.0355
     28 H           6.0010   -1.0600    0.0000 H       1  UNL1        0.0622
     29 H           6.0010    0.5600    0.0000 H       1  UNL1        0.0656
     30 H           6.0010   -2.4400    0.0000 H       1  UNL1        0.0570
     31 H           1.6900    0.7869    0.0000 H       1  UNL1        0.0660
     32 H           1.4631   -0.0600    0.0000 H       1  UNL1        0.0660
     33 H           2.3100   -0.2869    0.0000 H       1  UNL1        0.0660
     34 H           4.9272   -4.0600    0.0000 H       1  UNL1        0.0532
     35 H           6.0010   -4.0600    0.0000 H       1  UNL1        0.0532
@<TRIPOS>BOND
     1     1     6    1
     2     1     8    1
     3     2     7    1
     4     2    16    1
     5     3     8    2
     6     4     8    1
     7     4     9    1
     8     4    10    1
     9     4    18    1
    10     5    11   ar
    11     5    12    1
    12     5    13   ar
    13     6     7   ar
    14     6    14   ar
    15     7    11   ar
    16     9    19    1
    17     9    20    1
    18     9    21    1
    19    10    22    1
    20    10    23    1
    21    10    24    1
    22    11    25    1
    23    12    15    1
    24    12    26    1
    25    12    27    1
    26    13    14   ar
    27    13    28    1
    28    14    29    1
    29    15    17    2
    30    15    30    1
    31    16    31    1
    32    16    32    1
    33    16    33    1
    34    17    34    1
    35    17    35    1
