@<TRIPOS>MOLECULE
IMPHY014123
 61 61 0 0 0
SMALL
GASTEIGER

@<TRIPOS>ATOM
      1 O          19.3205   -0.0600    0.0000 O.3     1  UNL1       -0.5059
      2 O          18.4545    1.4400    0.0000 O.3     1  UNL1       -0.4770
      3 O          16.7224    1.4400    0.0000 O.2     1  UNL1       -0.2450
      4 C          13.2583   -0.5600    0.0000 C.3     1  UNL1       -0.0530
      5 C          14.1244   -0.0600    0.0000 C.3     1  UNL1       -0.0528
      6 C          12.3923   -0.0600    0.0000 C.3     1  UNL1       -0.0528
      7 C          14.9904   -0.5600    0.0000 C.3     1  UNL1       -0.0490
      8 C          11.5263   -0.5600    0.0000 C.3     1  UNL1       -0.0496
      9 C          15.8564   -0.0600    0.0000 C.3     1  UNL1       -0.0268
     10 C          10.6603   -0.0600    0.0000 C.3     1  UNL1       -0.0348
     11 C          16.7224   -0.5600    0.0000 C.ar    1  UNL1       -0.0299
     12 C          17.5885   -0.0600    0.0000 C.ar    1  UNL1        0.1032
     13 C           9.7942   -0.5600    0.0000 C.2     1  UNL1       -0.0876
     14 C          16.7224   -1.5600    0.0000 C.ar    1  UNL1       -0.0576
     15 C          18.4545   -0.5600    0.0000 C.ar    1  UNL1        0.1311
     16 C          17.5885   -2.0600    0.0000 C.ar    1  UNL1       -0.0580
     17 C           8.9282   -0.0600    0.0000 C.2     1  UNL1       -0.0842
     18 C          18.4545   -1.5600    0.0000 C.ar    1  UNL1       -0.0193
     19 C          17.5885    0.9400    0.0000 C.2     1  UNL1        0.3406
     20 C           8.0622   -0.5600    0.0000 C.3     1  UNL1       -0.0165
     21 C           7.1962   -0.0600    0.0000 C.2     1  UNL1       -0.0839
     22 C           6.3301   -0.5600    0.0000 C.2     1  UNL1       -0.0839
     23 C           5.4641   -0.0600    0.0000 C.3     1  UNL1       -0.0165
     24 C           4.5981   -0.5600    0.0000 C.2     1  UNL1       -0.0842
     25 C           3.7320   -0.0600    0.0000 C.2     1  UNL1       -0.0879
     26 C           2.8660   -0.5600    0.0000 C.3     1  UNL1       -0.0376
     27 C           2.0000   -0.0600    0.0000 C.3     1  UNL1       -0.0618
     28 H          12.8598   -1.0350    0.0000 H       1  UNL1        0.0265
     29 H          13.6569   -1.0350    0.0000 H       1  UNL1        0.0265
     30 H          14.5229    0.4149    0.0000 H       1  UNL1        0.0265
     31 H          13.7258    0.4149    0.0000 H       1  UNL1        0.0265
     32 H          12.7908    0.4149    0.0000 H       1  UNL1        0.0265
     33 H          11.9938    0.4149    0.0000 H       1  UNL1        0.0265
     34 H          14.5919   -1.0350    0.0000 H       1  UNL1        0.0268
     35 H          15.3889   -1.0350    0.0000 H       1  UNL1        0.0268
     36 H          11.1278   -1.0350    0.0000 H       1  UNL1        0.0268
     37 H          11.9248   -1.0350    0.0000 H       1  UNL1        0.0268
     38 H          16.2549    0.4149    0.0000 H       1  UNL1        0.0313
     39 H          15.4579    0.4149    0.0000 H       1  UNL1        0.0313
     40 H          11.0588    0.4149    0.0000 H       1  UNL1        0.0307
     41 H          10.2617    0.4149    0.0000 H       1  UNL1        0.0307
     42 H           9.7942   -1.1800    0.0000 H       1  UNL1        0.0569
     43 H          16.1855   -1.8700    0.0000 H       1  UNL1        0.0621
     44 H          17.5885   -2.6800    0.0000 H       1  UNL1        0.0619
     45 H           8.9282    0.5600    0.0000 H       1  UNL1        0.0572
     46 H          18.9914   -1.8700    0.0000 H       1  UNL1        0.0654
     47 H           7.6636   -1.0350    0.0000 H       1  UNL1        0.0350
     48 H           8.4607   -1.0350    0.0000 H       1  UNL1        0.0350
     49 H           7.1962    0.5600    0.0000 H       1  UNL1        0.0572
     50 H          19.8574   -0.3700    0.0000 H       1  UNL1        0.2922
     51 H           6.3301   -1.1800    0.0000 H       1  UNL1        0.0572
     52 H          18.4545    2.0600    0.0000 H       1  UNL1        0.2954
     53 H           5.8626    0.4149    0.0000 H       1  UNL1        0.0350
     54 H           5.0656    0.4149    0.0000 H       1  UNL1        0.0350
     55 H           4.5981   -1.1800    0.0000 H       1  UNL1        0.0572
     56 H           3.7320    0.5600    0.0000 H       1  UNL1        0.0569
     57 H           2.4675   -1.0350    0.0000 H       1  UNL1        0.0305
     58 H           3.2646   -1.0350    0.0000 H       1  UNL1        0.0305
     59 H           2.3100    0.4769    0.0000 H       1  UNL1        0.0233
     60 H           1.4631    0.2500    0.0000 H       1  UNL1        0.0233
     61 H           1.6900   -0.5969    0.0000 H       1  UNL1        0.0233
@<TRIPOS>BOND
     1     1    15    1
     2     1    50    1
     3     2    19    1
     4     2    52    1
     5     3    19    2
     6     4     5    1
     7     4     6    1
     8     4    28    1
     9     4    29    1
    10     5     7    1
    11     5    30    1
    12     5    31    1
    13     6     8    1
    14     6    32    1
    15     6    33    1
    16     7     9    1
    17     7    34    1
    18     7    35    1
    19     8    10    1
    20     8    36    1
    21     8    37    1
    22     9    11    1
    23     9    38    1
    24     9    39    1
    25    10    13    1
    26    10    40    1
    27    10    41    1
    28    11    12   ar
    29    11    14   ar
    30    12    15   ar
    31    12    19    1
    32    13    17    2
    33    13    42    1
    34    14    16   ar
    35    14    43    1
    36    15    18   ar
    37    16    18   ar
    38    16    44    1
    39    17    20    1
    40    17    45    1
    41    18    46    1
    42    20    21    1
    43    20    47    1
    44    20    48    1
    45    21    22    2
    46    21    49    1
    47    22    23    1
    48    22    51    1
    49    23    24    1
    50    23    53    1
    51    23    54    1
    52    24    25    2
    53    24    55    1
    54    25    26    1
    55    25    56    1
    56    26    27    1
    57    26    57    1
    58    26    58    1
    59    27    59    1
    60    27    60    1
    61    27    61    1
