@<TRIPOS>MOLECULE
IMPHY006903
 79 83 0 0 0
SMALL
GASTEIGER

@<TRIPOS>ATOM
      1 O           7.7289   -0.6141    0.0000 O.3     1  UNL1       -0.3474
      2 O           6.8671   -2.1047    0.0000 O.3     1  UNL1       -0.3201
      3 O           6.0589    3.4458    0.0000 O.2     1  UNL1       -0.2885
      4 O           6.9291    3.9257    0.0000 O.2     1  UNL1       -0.2882
      5 O           4.2576    2.4707    0.0000 O.2     1  UNL1       -0.4917
      6 O           8.7151    4.9285    0.0000 O.2     1  UNL1       -0.4919
      7 O           5.1350   -2.1047    0.0000 O.3     1  UNL1       -0.3404
      8 O           6.8671   -4.1047    0.0000 O.3     1  UNL1       -0.3841
      9 O           5.1350   -5.1047    0.0000 O.3     1  UNL1       -0.3864
     10 O           3.4030   -4.1047    0.0000 O.3     1  UNL1       -0.3865
     11 O           2.5369   -2.6047    0.0000 O.3     1  UNL1       -0.3924
     12 C           6.8912    0.8944    0.0000 C.3     1  UNL1        0.0118
     13 C           6.9109    1.8942    0.0000 C.3     1  UNL1        0.0462
     14 C           7.7866    2.3770    0.0000 C.3     1  UNL1        0.0477
     15 C           7.7472    0.3774    0.0000 C.3     1  UNL1        0.0686
     16 C           8.6426    1.8601    0.0000 C.3     1  UNL1       -0.0193
     17 C           5.9869    0.3774    0.0000 C.3     1  UNL1       -0.0033
     18 C           8.6229    0.8603    0.0000 C.3     1  UNL1       -0.0217
     19 C           9.5624    2.3489    0.0000 C.3     1  UNL1       -0.0181
     20 C           6.0052   -0.6141    0.0000 C.3     1  UNL1        0.0057
     21 C           6.0352    1.4113    0.0000 C.3     1  UNL1       -0.0560
     22 C           6.0277    2.4463    0.0000 C.2     1  UNL1        0.2019
     23 C           5.0911    0.9090    0.0000 C.2     1  UNL1       -0.0237
     24 C           6.9306    2.8940    0.0000 C.3     1  UNL1       -0.0514
     25 C           7.7910    3.4186    0.0000 C.2     1  UNL1        0.2038
     26 C           6.8671   -1.1047    0.0000 C.3     1  UNL1        0.1632
     27 C           5.1116    1.9504    0.0000 C.2     1  UNL1        0.1619
     28 C           9.5910    3.3901    0.0000 C.2     1  UNL1       -0.0356
     29 C           8.6993    3.9286    0.0000 C.2     1  UNL1        0.1592
     30 C          10.4124    1.8221    0.0000 C.3     1  UNL1       -0.0585
     31 C           4.2173    0.4228    0.0000 C.3     1  UNL1       -0.0397
     32 C           6.0010   -2.6047    0.0000 C.3     1  UNL1        0.1908
     33 C           6.0010   -3.6047    0.0000 C.3     1  UNL1        0.1342
     34 C           3.3801    1.9912    0.0000 C.3     1  UNL1        0.0789
     35 C           5.1350   -4.1047    0.0000 C.3     1  UNL1        0.1141
     36 C           9.5890    5.4147    0.0000 C.3     1  UNL1        0.0789
     37 C           4.2690   -2.6047    0.0000 C.3     1  UNL1        0.1130
     38 C           4.2690   -3.6047    0.0000 C.3     1  UNL1        0.1119
     39 C           3.4030   -2.1047    0.0000 C.3     1  UNL1        0.0730
     40 H           7.6385    1.4548    0.0000 H       1  UNL1        0.0398
     41 H           8.4751   -0.0616    0.0000 H       1  UNL1        0.0603
     42 H           9.3668    1.4150    0.0000 H       1  UNL1        0.0317
     43 H           5.2522   -0.0500    0.0000 H       1  UNL1        0.0355
     44 H           8.8235    0.2736    0.0000 H       1  UNL1        0.0293
     45 H           9.2355    0.9559    0.0000 H       1  UNL1        0.0293
     46 H          10.1082    2.6430    0.0000 H       1  UNL1        0.0344
     47 H           5.3931   -0.5152    0.0000 H       1  UNL1        0.0320
     48 H           5.7991   -1.1989    0.0000 H       1  UNL1        0.0320
     49 H           6.3557    1.9420    0.0000 H       1  UNL1        0.0236
     50 H           5.5045    1.7318    0.0000 H       1  UNL1        0.0236
     51 H           5.7147    0.8806    0.0000 H       1  UNL1        0.0236
     52 H           7.2511    3.4247    0.0000 H       1  UNL1        0.0239
     53 H           6.3999    3.2145    0.0000 H       1  UNL1        0.0239
     54 H           6.6101    2.3632    0.0000 H       1  UNL1        0.0239
     55 H           6.3311   -1.4164    0.0000 H       1  UNL1        0.0911
     56 H          10.1350    3.6874    0.0000 H       1  UNL1        0.0612
     57 H          10.0858    1.2951    0.0000 H       1  UNL1        0.0235
     58 H          10.9394    1.4954    0.0000 H       1  UNL1        0.0235
     59 H          10.7390    2.3490    0.0000 H       1  UNL1        0.0235
     60 H           3.9158    0.9645    0.0000 H       1  UNL1        0.0276
     61 H           3.6755    0.1213    0.0000 H       1  UNL1        0.0276
     62 H           4.5188   -0.1190    0.0000 H       1  UNL1        0.0276
     63 H           6.0010   -1.9847    0.0000 H       1  UNL1        0.0938
     64 H           6.5380   -3.2947    0.0000 H       1  UNL1        0.0671
     65 H           3.0828    2.5353    0.0000 H       1  UNL1        0.0660
     66 H           2.8360    1.6939    0.0000 H       1  UNL1        0.0660
     67 H           3.6774    1.4471    0.0000 H       1  UNL1        0.0660
     68 H           5.6720   -4.4147    0.0000 H       1  UNL1        0.0648
     69 H           9.8904    4.8729    0.0000 H       1  UNL1        0.0660
     70 H          10.1308    5.7162    0.0000 H       1  UNL1        0.0660
     71 H           9.2875    5.9565    0.0000 H       1  UNL1        0.0660
     72 H           4.2690   -1.9847    0.0000 H       1  UNL1        0.0647
     73 H           3.7320   -3.2947    0.0000 H       1  UNL1        0.0647
     74 H           6.8671   -4.7247    0.0000 H       1  UNL1        0.2101
     75 H           3.8015   -1.6298    0.0000 H       1  UNL1        0.0584
     76 H           3.0044   -1.6298    0.0000 H       1  UNL1        0.0584
     77 H           4.5981   -5.4147    0.0000 H       1  UNL1        0.2100
     78 H           3.4030   -4.7247    0.0000 H       1  UNL1        0.2100
     79 H           2.0000   -2.2947    0.0000 H       1  UNL1        0.2095
@<TRIPOS>BOND
     1     1    15    1
     2     1    26    1
     3    26     2    1
     4    32     2    1
     5     3    22    2
     6     4    25    2
     7     5    27    1
     8     5    34    1
     9     6    29    1
    10     6    36    1
    11     7    32    1
    12     7    37    1
    13    33     8    1
    14     8    74    1
    15    35     9    1
    16     9    77    1
    17    38    10    1
    18    10    78    1
    19    11    39    1
    20    11    79    1
    21    12    13    1
    22    12    15    1
    23    12    17    1
    24    12    21    1
    25    13    14    1
    26    13    22    1
    27    13    40    1
    28    14    16    1
    29    14    24    1
    30    14    25    1
    31    15    18    1
    32    15    41    1
    33    16    18    1
    34    16    19    1
    35    16    42    1
    36    17    20    1
    37    17    23    1
    38    17    43    1
    39    18    44    1
    40    18    45    1
    41    19    28    1
    42    19    30    1
    43    19    46    1
    44    20    26    1
    45    20    47    1
    46    20    48    1
    47    21    49    1
    48    21    50    1
    49    21    51    1
    50    22    27    1
    51    23    27    2
    52    23    31    1
    53    24    52    1
    54    24    53    1
    55    24    54    1
    56    25    29    1
    57    26    55    1
    58    28    29    2
    59    28    56    1
    60    30    57    1
    61    30    58    1
    62    30    59    1
    63    31    60    1
    64    31    61    1
    65    31    62    1
    66    32    33    1
    67    32    63    1
    68    33    35    1
    69    33    64    1
    70    34    65    1
    71    34    66    1
    72    34    67    1
    73    35    38    1
    74    35    68    1
    75    36    69    1
    76    36    70    1
    77    36    71    1
    78    37    38    1
    79    37    39    1
    80    37    72    1
    81    38    73    1
    82    39    75    1
    83    39    76    1
