@<TRIPOS>MOLECULE
IMPHY000467
 67 73 0 0 0
SMALL
GASTEIGER

@<TRIPOS>ATOM
      1 O           6.3622    1.2807    0.0000 O.2     1  UNL1       -0.2914
      2 O           5.4897   -2.4140    0.0000 O.2     1  UNL1       -0.2909
      3 O           2.8981    2.2807    0.0000 O.2     1  UNL1       -0.2913
      4 O           2.0000   -1.8253    0.0000 O.2     1  UNL1       -0.2917
      5 O           6.1064   -2.3916    0.0000 O.2     1  UNL1       -0.2868
      6 O           3.7424    3.8121    0.0000 O.3     1  UNL1       -0.5060
      7 O           6.2670   -3.2168    0.0000 O.3     1  UNL1       -0.5060
      8 O           7.2252    1.3426    0.0000 O.2     1  UNL1       -0.2870
      9 O           7.1777   -3.0543    0.0000 O.3     1  UNL1       -0.5060
     10 C           4.6302    0.2807    0.0000 C.3     1  UNL1        0.0605
     11 C           4.4210   -0.6911    0.0000 C.3     1  UNL1        0.0855
     12 C           3.7642    0.7807    0.0000 C.3     1  UNL1        0.0452
     13 C           3.4322   -0.7942    0.0000 C.3     1  UNL1        0.0408
     14 C           3.0271    0.1136    0.0000 C.3     1  UNL1       -0.0285
     15 C           5.4962    0.7807    0.0000 C.2     1  UNL1        0.1720
     16 C           5.7108   -0.1127    0.0000 C.3     1  UNL1       -0.0503
     17 C           5.4156   -0.5875    0.0000 C.2     1  UNL1        0.0218
     18 C           5.0417   -1.5199    0.0000 C.2     1  UNL1        0.1795
     19 C           3.7642    1.7807    0.0000 C.2     1  UNL1        0.1742
     20 C           2.8981    1.2807    0.0000 C.3     1  UNL1       -0.0515
     21 C           2.9957   -1.7332    0.0000 C.2     1  UNL1        0.1683
     22 C           5.4962    1.7807    0.0000 C.ar    1  UNL1        0.0320
     23 C           4.6302    2.2807    0.0000 C.ar    1  UNL1        0.0698
     24 C           4.6270   -2.4687    0.0000 C.ar    1  UNL1        0.0702
     25 C           3.5972   -2.5760    0.0000 C.ar    1  UNL1        0.0317
     26 C           5.8231    0.3257    0.0000 C.2     1  UNL1        0.0046
     27 C           6.0027   -1.3970    0.0000 C.2     1  UNL1        0.1948
     28 C           4.6141    3.3222    0.0000 C.ar    1  UNL1        0.1280
     29 C           6.4062    2.2875    0.0000 C.ar    1  UNL1       -0.0503
     30 C           5.2736   -3.3320    0.0000 C.ar    1  UNL1        0.1280
     31 C           3.1425   -3.5541    0.0000 C.ar    1  UNL1       -0.0504
     32 C           6.9973   -1.2933    0.0000 C.ar    1  UNL1        0.0741
     33 C           6.8177    0.4294    0.0000 C.2     1  UNL1        0.1901
     34 C           4.9946    0.8856    0.0000 C.3     1  UNL1       -0.0357
     35 C           7.4048   -0.3801    0.0000 C.ar    1  UNL1        0.0362
     36 C           5.5122    3.8499    0.0000 C.ar    1  UNL1       -0.0194
     37 C           6.4142    3.3291    0.0000 C.ar    1  UNL1       -0.0576
     38 C           4.8417   -4.3203    0.0000 C.ar    1  UNL1       -0.0194
     39 C           3.7690   -4.4321    0.0000 C.ar    1  UNL1       -0.0576
     40 C           7.5957   -2.1459    0.0000 C.ar    1  UNL1        0.1283
     41 C           8.4390   -0.2562    0.0000 C.ar    1  UNL1       -0.0500
     42 C           8.6326   -2.0459    0.0000 C.ar    1  UNL1       -0.0194
     43 C           9.0570   -1.0947    0.0000 C.ar    1  UNL1       -0.0576
     44 H           2.5823   -0.7876    0.0000 H       1  UNL1        0.0394
     45 H           2.6617    0.6144    0.0000 H       1  UNL1        0.0282
     46 H           2.4906   -0.1972    0.0000 H       1  UNL1        0.0282
     47 H           5.4988   -0.6953    0.0000 H       1  UNL1        0.0240
     48 H           6.2934   -0.3247    0.0000 H       1  UNL1        0.0240
     49 H           5.9229    0.4700    0.0000 H       1  UNL1        0.0240
     50 H           3.2081    1.8176    0.0000 H       1  UNL1        0.0239
     51 H           2.3612    1.5907    0.0000 H       1  UNL1        0.0239
     52 H           2.5881    0.7437    0.0000 H       1  UNL1        0.0239
     53 H           6.9395    1.9713    0.0000 H       1  UNL1        0.0625
     54 H           2.5251   -3.6112    0.0000 H       1  UNL1        0.0625
     55 H           5.3417    1.3993    0.0000 H       1  UNL1        0.0279
     56 H           4.4809    1.2328    0.0000 H       1  UNL1        0.0279
     57 H           4.6474    0.3719    0.0000 H       1  UNL1        0.0279
     58 H           5.5098    4.4699    0.0000 H       1  UNL1        0.0654
     59 H           6.9524    3.6370    0.0000 H       1  UNL1        0.0619
     60 H           5.2076   -4.8208    0.0000 H       1  UNL1        0.0654
     61 H           3.5141   -4.9973    0.0000 H       1  UNL1        0.0619
     62 H           3.7352    4.4321    0.0000 H       1  UNL1        0.2922
     63 H           6.6368   -3.7145    0.0000 H       1  UNL1        0.2922
     64 H           8.6851    0.3129    0.0000 H       1  UNL1        0.0625
     65 H           8.9946   -2.5492    0.0000 H       1  UNL1        0.0654
     66 H           9.6735   -1.0280    0.0000 H       1  UNL1        0.0619
     67 H           7.5358   -3.5604    0.0000 H       1  UNL1        0.2922
@<TRIPOS>BOND
     1     1    15    2
     2     2    18    2
     3     3    19    2
     4     4    21    2
     5     5    27    2
     6     6    28    1
     7     6    62    1
     8     7    30    1
     9     7    63    1
    10     8    33    2
    11     9    40    1
    12     9    67    1
    13    10    11    1
    14    10    12    1
    15    10    15    1
    16    10    16    1
    17    11    13    1
    18    11    17    1
    19    11    18    1
    20    12    14    1
    21    12    19    1
    22    12    20    1
    23    13    14    1
    24    13    21    1
    25    13    44    1
    26    14    45    1
    27    14    46    1
    28    15    22    1
    29    16    47    1
    30    16    48    1
    31    16    49    1
    32    17    26    2
    33    17    27    1
    34    18    24    1
    35    19    23    1
    36    20    50    1
    37    20    51    1
    38    20    52    1
    39    21    25    1
    40    22    23   ar
    41    22    29   ar
    42    23    28   ar
    43    24    25   ar
    44    24    30   ar
    45    25    31   ar
    46    26    33    1
    47    26    34    1
    48    27    32    1
    49    28    36   ar
    50    29    37   ar
    51    29    53    1
    52    30    38   ar
    53    31    39   ar
    54    31    54    1
    55    32    35   ar
    56    32    40   ar
    57    33    35    1
    58    34    55    1
    59    34    56    1
    60    34    57    1
    61    35    41   ar
    62    36    37   ar
    63    36    58    1
    64    37    59    1
    65    38    39   ar
    66    38    60    1
    67    39    61    1
    68    40    42   ar
    69    41    43   ar
    70    41    64    1
    71    42    43   ar
    72    42    65    1
    73    43    66    1
