@<TRIPOS>MOLECULE
IMPHY009211
 26 27 0 0 0
SMALL
GASTEIGER

@<TRIPOS>ATOM
      1 O           5.6261    0.8364    0.0000 O.3     1  UNL1       -0.3649
      2 O           4.5691   -1.2514    0.0000 O.2     1  UNL1       -0.4674
      3 C           5.1261    1.7024    0.0000 C.3     1  UNL1        0.0908
      4 C           4.6261    0.8364    0.0000 C.3     1  UNL1        0.0946
      5 C           3.7601    0.3364    0.0000 C.3     1  UNL1        0.0348
      6 C           5.9921    2.2024    0.0000 C.3     1  UNL1       -0.0336
      7 C           4.2601    2.2024    0.0000 C.3     1  UNL1       -0.0336
      8 C           3.7601   -0.6636    0.0000 C.ar    1  UNL1        0.1103
      9 C           2.9511   -1.2514    0.0000 C.ar    1  UNL1       -0.0095
     10 C           3.2601   -2.2024    0.0000 C.ar    1  UNL1       -0.0207
     11 C           2.0000   -0.9424    0.0000 C.3     1  UNL1       -0.0365
     12 C           4.2601   -2.2024    0.0000 C.ar    1  UNL1        0.0923
     13 H           4.8461    0.0154    0.0000 H       1  UNL1        0.0629
     14 H           3.5480    0.9190    0.0000 H       1  UNL1        0.0370
     15 H           3.1495    0.2287    0.0000 H       1  UNL1        0.0370
     16 H           6.3021    1.6655    0.0000 H       1  UNL1        0.0258
     17 H           6.5291    2.5124    0.0000 H       1  UNL1        0.0258
     18 H           5.6821    2.7394    0.0000 H       1  UNL1        0.0258
     19 H           4.5701    2.7394    0.0000 H       1  UNL1        0.0258
     20 H           3.7231    2.5124    0.0000 H       1  UNL1        0.0258
     21 H           3.9501    1.6655    0.0000 H       1  UNL1        0.0258
     22 H           2.8956   -2.7040    0.0000 H       1  UNL1        0.0652
     23 H           2.1916   -0.3527    0.0000 H       1  UNL1        0.0279
     24 H           1.4103   -0.7508    0.0000 H       1  UNL1        0.0279
     25 H           1.8084   -1.5320    0.0000 H       1  UNL1        0.0279
     26 H           4.6245   -2.7040    0.0000 H       1  UNL1        0.1029
@<TRIPOS>BOND
     1     1     3    1
     2     1     4    1
     3     2     8   ar
     4     2    12   ar
     5     3     4    1
     6     3     6    1
     7     3     7    1
     8     4     5    1
     9     4    13    1
    10     5     8    1
    11     5    14    1
    12     5    15    1
    13     6    16    1
    14     6    17    1
    15     6    18    1
    16     7    19    1
    17     7    20    1
    18     7    21    1
    19     8     9   ar
    20     9    10   ar
    21     9    11    1
    22    10    12   ar
    23    10    22    1
    24    11    23    1
    25    11    24    1
    26    11    25    1
    27    12    26    1
