@<TRIPOS>MOLECULE
IMPHY004257
 39 40 0 0 0
SMALL
GASTEIGER

@<TRIPOS>ATOM
      1 O           5.4641   -1.2327    0.0000 O.3     1  UNL1       -0.3837
      2 O           8.1282    1.2914    0.0000 O.2     1  UNL1       -0.2927
      3 C           5.4641    0.7673    0.0000 C.3     1  UNL1        0.0076
      4 C           5.4641   -0.2327    0.0000 C.3     1  UNL1        0.0934
      5 C           4.5981    1.2673    0.0000 C.3     1  UNL1       -0.0438
      6 C           4.5981   -0.7327    0.0000 C.3     1  UNL1       -0.0131
      7 C           3.7320   -0.2327    0.0000 C.3     1  UNL1       -0.0175
      8 C           3.7320    0.7673    0.0000 C.3     1  UNL1       -0.0458
      9 C           6.3580    1.3020    0.0000 C.3     1  UNL1        0.0182
     10 C           6.3580   -0.7674    0.0000 C.2     1  UNL1       -0.0377
     11 C           5.4641    1.7673    0.0000 C.3     1  UNL1       -0.0562
     12 C           7.2641    0.7881    0.0000 C.2     1  UNL1        0.1568
     13 C           2.8660   -0.7327    0.0000 C.2     1  UNL1       -0.0765
     14 C           7.2641   -0.2535    0.0000 C.2     1  UNL1       -0.0175
     15 C           6.3465   -1.7673    0.0000 C.3     1  UNL1       -0.0407
     16 C           2.0000   -0.2327    0.0000 C.3     1  UNL1       -0.0438
     17 C           2.8660   -1.7327    0.0000 C.2     1  UNL1       -0.0994
     18 H           4.9966    1.7422    0.0000 H       1  UNL1        0.0272
     19 H           4.1996    1.7422    0.0000 H       1  UNL1        0.0272
     20 H           4.1996   -1.2076    0.0000 H       1  UNL1        0.0302
     21 H           4.9966   -1.2076    0.0000 H       1  UNL1        0.0302
     22 H           3.7320   -0.8527    0.0000 H       1  UNL1        0.0346
     23 H           3.5200    1.3499    0.0000 H       1  UNL1        0.0271
     24 H           3.1215    0.6596    0.0000 H       1  UNL1        0.0271
     25 H           6.7517    1.7810    0.0000 H       1  UNL1        0.0351
     26 H           5.9534    1.7718    0.0000 H       1  UNL1        0.0351
     27 H           6.0841    1.7673    0.0000 H       1  UNL1        0.0236
     28 H           5.4641    2.3873    0.0000 H       1  UNL1        0.0236
     29 H           4.8441    1.7673    0.0000 H       1  UNL1        0.0236
     30 H           7.7998   -0.5656    0.0000 H       1  UNL1        0.0653
     31 H           4.9272   -1.5427    0.0000 H       1  UNL1        0.2106
     32 H           5.7265   -1.7601    0.0000 H       1  UNL1        0.0275
     33 H           6.3393   -2.3873    0.0000 H       1  UNL1        0.0275
     34 H           6.9664   -1.7745    0.0000 H       1  UNL1        0.0275
     35 H           2.3100    0.3042    0.0000 H       1  UNL1        0.0274
     36 H           1.4631    0.0773    0.0000 H       1  UNL1        0.0274
     37 H           1.6900   -0.7696    0.0000 H       1  UNL1        0.0274
     38 H           2.3291   -2.0427    0.0000 H       1  UNL1        0.0534
     39 H           3.4030   -2.0427    0.0000 H       1  UNL1        0.0534
@<TRIPOS>BOND
     1     4     1    1
     2     1    31    1
     3     2    12    2
     4     3     4    1
     5     3     5    1
     6     3     9    1
     7     3    11    1
     8     4     6    1
     9     4    10    1
    10     5     8    1
    11     5    18    1
    12     5    19    1
    13     6     7    1
    14     6    20    1
    15     6    21    1
    16     7     8    1
    17     7    13    1
    18     7    22    1
    19     8    23    1
    20     8    24    1
    21     9    12    1
    22     9    25    1
    23     9    26    1
    24    10    14    2
    25    10    15    1
    26    11    27    1
    27    11    28    1
    28    11    29    1
    29    12    14    1
    30    13    16    1
    31    13    17    2
    32    14    30    1
    33    15    32    1
    34    15    33    1
    35    15    34    1
    36    16    35    1
    37    16    36    1
    38    16    37    1
    39    17    38    1
    40    17    39    1
