@<TRIPOS>MOLECULE
IMPHY016378
 30 29 0 0 0
SMALL
GASTEIGER

@<TRIPOS>ATOM
      1 O           5.4641    0.7500    0.0000 O.3     1  UNL1       -0.4643
      2 O           6.3301   -0.7500    0.0000 O.2     1  UNL1       -0.2508
      3 C           8.0622    0.2500    0.0000 C.3     1  UNL1       -0.0367
      4 C           7.1962    0.7500    0.0000 C.3     1  UNL1        0.0473
      5 C           8.9282    0.7500    0.0000 C.3     1  UNL1       -0.0622
      6 C           8.0622   -0.7500    0.0000 C.3     1  UNL1       -0.0622
      7 C           6.3301    0.2500    0.0000 C.2     1  UNL1        0.3073
      8 C           4.5981    0.2500    0.0000 C.3     1  UNL1        0.0961
      9 C           3.7320    0.7500    0.0000 C.3     1  UNL1        0.0022
     10 C           2.8660    0.2500    0.0000 C.2     1  UNL1       -0.0765
     11 C           2.0000    0.7500    0.0000 C.3     1  UNL1       -0.0439
     12 C           2.8660   -0.7500    0.0000 C.2     1  UNL1       -0.0996
     13 H           8.0622    0.8700    0.0000 H       1  UNL1        0.0301
     14 H           7.5947    1.2250    0.0000 H       1  UNL1        0.0380
     15 H           6.7976    1.2250    0.0000 H       1  UNL1        0.0380
     16 H           9.2382    0.2131    0.0000 H       1  UNL1        0.0232
     17 H           9.4651    1.0600    0.0000 H       1  UNL1        0.0232
     18 H           8.6182    1.2869    0.0000 H       1  UNL1        0.0232
     19 H           7.4422   -0.7500    0.0000 H       1  UNL1        0.0232
     20 H           8.0622   -1.3700    0.0000 H       1  UNL1        0.0232
     21 H           8.6822   -0.7500    0.0000 H       1  UNL1        0.0232
     22 H           4.1996   -0.2249    0.0000 H       1  UNL1        0.0700
     23 H           4.9966   -0.2249    0.0000 H       1  UNL1        0.0700
     24 H           4.1306    1.2250    0.0000 H       1  UNL1        0.0343
     25 H           3.3335    1.2250    0.0000 H       1  UNL1        0.0343
     26 H           2.3100    1.2869    0.0000 H       1  UNL1        0.0274
     27 H           1.4631    1.0600    0.0000 H       1  UNL1        0.0274
     28 H           1.6900    0.2131    0.0000 H       1  UNL1        0.0274
     29 H           2.3291   -1.0600    0.0000 H       1  UNL1        0.0534
     30 H           3.4030   -1.0600    0.0000 H       1  UNL1        0.0534
@<TRIPOS>BOND
     1     1     7    1
     2     1     8    1
     3     2     7    2
     4     3     4    1
     5     3     5    1
     6     3     6    1
     7     3    13    1
     8     4     7    1
     9     4    14    1
    10     4    15    1
    11     5    16    1
    12     5    17    1
    13     5    18    1
    14     6    19    1
    15     6    20    1
    16     6    21    1
    17     8     9    1
    18     8    22    1
    19     8    23    1
    20     9    10    1
    21     9    24    1
    22     9    25    1
    23    10    11    1
    24    10    12    2
    25    11    26    1
    26    11    27    1
    27    11    28    1
    28    12    29    1
    29    12    30    1
