@<TRIPOS>MOLECULE
IMPHY014670
 29 30 0 0 0
SMALL
GASTEIGER

@<TRIPOS>ATOM
      1 O           2.0000    2.1648    0.0000 O.3     1  UNL1       -0.3072
      2 O           3.5004    3.0311    0.0000 O.3     1  UNL1       -0.3072
      3 O           2.6344    0.7990    0.0000 O.3     1  UNL1       -0.3833
      4 C           3.0004    2.1651    0.0000 C.3     1  UNL1        0.2561
      5 C           2.5004    3.0311    0.0000 C.3     1  UNL1        0.2225
      6 C           3.5004    1.2990    0.0000 C.3     1  UNL1        0.1223
      7 C           4.0004    0.4330    0.0000 C.3     1  UNL1       -0.0156
      8 C           4.3665    1.7990    0.0000 C.3     1  UNL1       -0.0308
      9 C           3.5004   -0.4330    0.0000 C.3     1  UNL1       -0.0318
     10 C           4.0004   -1.2990    0.0000 C.2     1  UNL1       -0.0852
     11 C           3.5004   -2.1651    0.0000 C.2     1  UNL1       -0.0796
     12 C           4.0004   -3.0311    0.0000 C.3     1  UNL1       -0.0440
     13 C           2.5004   -2.1651    0.0000 C.3     1  UNL1       -0.0440
     14 H           2.1905    3.5681    0.0000 H       1  UNL1        0.0969
     15 H           4.4754    0.0345    0.0000 H       1  UNL1        0.0297
     16 H           4.4754    0.8315    0.0000 H       1  UNL1        0.0297
     17 H           4.6765    1.2621    0.0000 H       1  UNL1        0.0259
     18 H           4.9034    2.1090    0.0000 H       1  UNL1        0.0259
     19 H           4.0565    2.3360    0.0000 H       1  UNL1        0.0259
     20 H           2.6344    0.1790    0.0000 H       1  UNL1        0.2104
     21 H           3.0255   -0.0345    0.0000 H       1  UNL1        0.0308
     22 H           3.0255   -0.8315    0.0000 H       1  UNL1        0.0308
     23 H           4.6204   -1.2990    0.0000 H       1  UNL1        0.0571
     24 H           3.4635   -3.3411    0.0000 H       1  UNL1        0.0274
     25 H           4.3104   -3.5680    0.0000 H       1  UNL1        0.0274
     26 H           4.5374   -2.7211    0.0000 H       1  UNL1        0.0274
     27 H           2.5004   -1.5451    0.0000 H       1  UNL1        0.0274
     28 H           1.8804   -2.1651    0.0000 H       1  UNL1        0.0274
     29 H           2.5004   -2.7851    0.0000 H       1  UNL1        0.0274
@<TRIPOS>BOND
     1     1     4    1
     2     1     5    1
     3     2     4    1
     4     2     5    1
     5     3     6    1
     6     3    20    1
     7     4     5    1
     8     4     6    1
     9     5    14    1
    10     6     7    1
    11     6     8    1
    12     7     9    1
    13     7    15    1
    14     7    16    1
    15     8    17    1
    16     8    18    1
    17     8    19    1
    18     9    10    1
    19     9    21    1
    20     9    22    1
    21    10    11    2
    22    10    23    1
    23    11    12    1
    24    11    13    1
    25    12    24    1
    26    12    25    1
    27    12    26    1
    28    13    27    1
    29    13    28    1
    30    13    29    1
