@<TRIPOS>MOLECULE
IMPHY013784
 30 30 0 0 0
SMALL
GASTEIGER

@<TRIPOS>ATOM
      1 O           3.7320   -0.9050    0.0000 O.3     1  UNL1       -0.4612
      2 O           2.8660    2.5950    0.0000 O.3     1  UNL1       -0.5032
      3 O           6.3301    2.5950    0.0000 O.3     1  UNL1       -0.5032
      4 O           4.5981    3.5950    0.0000 O.3     1  UNL1       -0.5009
      5 O           5.4641   -0.9050    0.0000 O.2     1  UNL1       -0.2450
      6 C           2.8660   -2.4050    0.0000 C.3     1  UNL1       -0.0188
      7 C           2.8660   -3.4050    0.0000 C.3     1  UNL1       -0.0528
      8 C           3.7320   -1.9050    0.0000 C.3     1  UNL1        0.0928
      9 C           2.0000   -3.9050    0.0000 C.3     1  UNL1       -0.0652
     10 C           4.5981    0.5950    0.0000 C.ar    1  UNL1        0.0661
     11 C           4.5981   -0.4050    0.0000 C.2     1  UNL1        0.3394
     12 C           5.4641    1.0950    0.0000 C.ar    1  UNL1       -0.0023
     13 C           3.7320    1.0950    0.0000 C.ar    1  UNL1       -0.0023
     14 C           3.7320    2.0950    0.0000 C.ar    1  UNL1        0.1628
     15 C           5.4641    2.0950    0.0000 C.ar    1  UNL1        0.1628
     16 C           4.5981    2.5950    0.0000 C.ar    1  UNL1        0.2006
     17 H           2.6540   -1.8224    0.0000 H       1  UNL1        0.0298
     18 H           2.2554   -2.5127    0.0000 H       1  UNL1        0.0298
     19 H           3.0781   -3.9876    0.0000 H       1  UNL1        0.0264
     20 H           3.4766   -3.2973    0.0000 H       1  UNL1        0.0264
     21 H           3.9441   -2.4876    0.0000 H       1  UNL1        0.0697
     22 H           4.3426   -1.7973    0.0000 H       1  UNL1        0.0697
     23 H           1.6900   -3.3681    0.0000 H       1  UNL1        0.0230
     24 H           1.4631   -4.2150    0.0000 H       1  UNL1        0.0230
     25 H           2.3100   -4.4419    0.0000 H       1  UNL1        0.0230
     26 H           6.0010    0.7850    0.0000 H       1  UNL1        0.0663
     27 H           3.1951    0.7850    0.0000 H       1  UNL1        0.0663
     28 H           2.3291    2.2850    0.0000 H       1  UNL1        0.2923
     29 H           6.8671    2.2850    0.0000 H       1  UNL1        0.2923
     30 H           5.1350    3.9050    0.0000 H       1  UNL1        0.2924
@<TRIPOS>BOND
     1     1     8    1
     2     1    11    1
     3     2    14    1
     4     2    28    1
     5     3    15    1
     6     3    29    1
     7     4    16    1
     8     4    30    1
     9     5    11    2
    10     6     7    1
    11     6     8    1
    12     6    17    1
    13     6    18    1
    14     7     9    1
    15     7    19    1
    16     7    20    1
    17     8    21    1
    18     8    22    1
    19     9    23    1
    20     9    24    1
    21     9    25    1
    22    10    11    1
    23    10    12   ar
    24    10    13   ar
    25    12    15   ar
    26    12    26    1
    27    13    14   ar
    28    13    27    1
    29    14    16   ar
    30    15    16   ar
