@<TRIPOS>MOLECULE
IMPHY001057
 51 54 0 0 0
SMALL
GASTEIGER

@<TRIPOS>ATOM
      1 O           2.9712    2.3963    0.0000 O.3     1  UNL1       -0.4914
      2 O           9.7030   -2.6916    0.0000 O.3     1  UNL1       -0.4914
      3 O           2.4066    0.4273    0.0000 O.3     1  UNL1       -0.4914
      4 O          11.2948   -1.4025    0.0000 O.3     1  UNL1       -0.4914
      5 N           6.6843    2.4519    0.0000 N.3     1  UNL1       -0.2909
      6 C           7.4209    1.4692    0.0000 C.3     1  UNL1        0.0403
      7 C           7.1621    0.5033    0.0000 C.3     1  UNL1        0.0403
      8 C           5.9410   -0.3623    0.0000 C.3     1  UNL1       -0.0074
      9 C           8.8525    1.2716    0.0000 C.3     1  UNL1       -0.0074
     10 C           5.3876    1.1581    0.0000 C.ar    1  UNL1       -0.0230
     11 C           8.4338   -0.2913    0.0000 C.ar    1  UNL1       -0.0230
     12 C           5.1120    0.1969    0.0000 C.ar    1  UNL1       -0.0372
     13 C           9.2109    0.3380    0.0000 C.ar    1  UNL1       -0.0372
     14 C           6.1843    3.3179    0.0000 C.3     1  UNL1       -0.0116
     15 C           4.6757    1.9185    0.0000 C.ar    1  UNL1       -0.0114
     16 C           8.5808   -1.3225    0.0000 C.ar    1  UNL1       -0.0114
     17 C           4.1053   -0.0707    0.0000 C.ar    1  UNL1       -0.0128
     18 C          10.1890   -0.0202    0.0000 C.ar    1  UNL1       -0.0128
     19 C           3.6631    1.6743    0.0000 C.ar    1  UNL1        0.1618
     20 C           9.5504   -1.7033    0.0000 C.ar    1  UNL1        0.1618
     21 C           3.3760    0.6730    0.0000 C.ar    1  UNL1        0.1618
     22 C          10.3599   -1.0478    0.0000 C.ar    1  UNL1        0.1618
     23 C           2.0000    2.1581    0.0000 C.3     1  UNL1        0.0790
     24 C           8.9234   -3.3179    0.0000 C.3     1  UNL1        0.0790
     25 C           2.1347   -0.5350    0.0000 C.3     1  UNL1        0.0790
     26 C          12.0695   -0.7702    0.0000 C.3     1  UNL1        0.0790
     27 H           7.6409    2.2903    0.0000 H       1  UNL1        0.0516
     28 H           6.9421   -0.3177    0.0000 H       1  UNL1        0.0516
     29 H           5.5352   -0.8310    0.0000 H       1  UNL1        0.0332
     30 H           6.3577   -0.8215    0.0000 H       1  UNL1        0.0332
     31 H           9.4603    1.3939    0.0000 H       1  UNL1        0.0332
     32 H           8.8335    1.8913    0.0000 H       1  UNL1        0.0332
     33 H           6.7212    3.6279    0.0000 H       1  UNL1        0.0391
     34 H           5.8743    3.8548    0.0000 H       1  UNL1        0.0391
     35 H           5.6473    3.0079    0.0000 H       1  UNL1        0.0391
     36 H           4.8535    2.5124    0.0000 H       1  UNL1        0.0659
     37 H           8.0945   -1.7071    0.0000 H       1  UNL1        0.0659
     38 H           3.9413   -0.6686    0.0000 H       1  UNL1        0.0658
     39 H          10.6663    0.3755    0.0000 H       1  UNL1        0.0658
     40 H           1.8523    2.7603    0.0000 H       1  UNL1        0.0660
     41 H           1.3978    2.0104    0.0000 H       1  UNL1        0.0660
     42 H           2.1477    1.5560    0.0000 H       1  UNL1        0.0660
     43 H           8.5351   -2.8346    0.0000 H       1  UNL1        0.0660
     44 H           8.4401   -3.7062    0.0000 H       1  UNL1        0.0660
     45 H           9.3117   -3.8012    0.0000 H       1  UNL1        0.0660
     46 H           1.5381   -0.3664    0.0000 H       1  UNL1        0.0660
     47 H           1.9661   -1.1316    0.0000 H       1  UNL1        0.0660
     48 H           2.7313   -0.7036    0.0000 H       1  UNL1        0.0660
     49 H          12.4616   -1.2505    0.0000 H       1  UNL1        0.0660
     50 H          12.5498   -0.3782    0.0000 H       1  UNL1        0.0660
     51 H          11.6775   -0.2899    0.0000 H       1  UNL1        0.0660
@<TRIPOS>BOND
     1     1    19    1
     2     1    23    1
     3     2    20    1
     4     2    24    1
     5     3    21    1
     6     3    25    1
     7     4    22    1
     8     4    26    1
     9     5     6    1
    10     5     7    1
    11     5    14    1
    12     6     9    1
    13     6    10    1
    14     6    27    1
    15     7     8    1
    16     7    11    1
    17     7    28    1
    18     8    12    1
    19     8    29    1
    20     8    30    1
    21     9    13    1
    22     9    31    1
    23     9    32    1
    24    10    12   ar
    25    10    15   ar
    26    11    13   ar
    27    11    16   ar
    28    12    17   ar
    29    13    18   ar
    30    14    33    1
    31    14    34    1
    32    14    35    1
    33    15    19   ar
    34    15    36    1
    35    16    20   ar
    36    16    37    1
    37    17    21   ar
    38    17    38    1
    39    18    22   ar
    40    18    39    1
    41    19    21   ar
    42    20    22   ar
    43    23    40    1
    44    23    41    1
    45    23    42    1
    46    24    43    1
    47    24    44    1
    48    24    45    1
    49    25    46    1
    50    25    47    1
    51    25    48    1
    52    26    49    1
    53    26    50    1
    54    26    51    1
