@<TRIPOS>MOLECULE
IMPHY014513
 47 49 0 0 0
SMALL
GASTEIGER

@<TRIPOS>ATOM
      1 O           5.4232   -0.7580    0.0000 O.3     1  UNL1       -0.4607
      2 O           4.2534   -2.0353    0.0000 O.2     1  UNL1       -0.2512
      3 C           2.9944    0.7791    0.0000 C.3     1  UNL1       -0.0201
      4 C           2.9837   -0.0826    0.0000 C.3     1  UNL1        0.0109
      5 C           3.8307    0.3763    0.0000 C.3     1  UNL1       -0.0283
      6 C           4.6671    0.7791    0.0000 C.3     1  UNL1        0.0052
      7 C           4.6857   -0.0826    0.0000 C.3     1  UNL1        0.1124
      8 C           3.4517   -0.9974    0.0000 C.3     1  UNL1       -0.0435
      9 C           4.3240   -0.5931    0.0000 C.3     1  UNL1       -0.0487
     10 C           4.8736    1.6840    0.0000 C.3     1  UNL1       -0.0284
     11 C           2.7879    1.6840    0.0000 C.3     1  UNL1       -0.0467
     12 C           2.0000    0.6733    0.0000 C.3     1  UNL1       -0.0587
     13 C           2.0101   -0.3108    0.0000 C.3     1  UNL1       -0.0557
     14 C           4.2949    2.4097    0.0000 C.3     1  UNL1       -0.0475
     15 C           3.3666    2.4097    0.0000 C.3     1  UNL1       -0.0520
     16 C           5.6067    2.3642    0.0000 C.3     1  UNL1       -0.0594
     17 C           5.8624    1.5350    0.0000 C.3     1  UNL1       -0.0594
     18 C           5.2071   -1.7344    0.0000 C.2     1  UNL1        0.3042
     19 C           5.9446   -2.4097    0.0000 C.3     1  UNL1        0.0332
     20 H           4.4182    0.1779    0.0000 H       1  UNL1        0.0310
     21 H           5.4911    0.9874    0.0000 H       1  UNL1        0.0345
     22 H           5.2972    0.0199    0.0000 H       1  UNL1        0.0742
     23 H           2.8962   -1.2726    0.0000 H       1  UNL1        0.0272
     24 H           3.7197   -1.5565    0.0000 H       1  UNL1        0.0272
     25 H           4.5916   -1.1524    0.0000 H       1  UNL1        0.0268
     26 H           4.8800   -0.3188    0.0000 H       1  UNL1        0.0268
     27 H           2.4013    2.1688    0.0000 H       1  UNL1        0.0271
     28 H           2.2292    1.4150    0.0000 H       1  UNL1        0.0271
     29 H           1.9344    1.2898    0.0000 H       1  UNL1        0.0235
     30 H           1.3835    0.6077    0.0000 H       1  UNL1        0.0235
     31 H           2.0656    0.0568    0.0000 H       1  UNL1        0.0235
     32 H           1.8686    0.2928    0.0000 H       1  UNL1        0.0236
     33 H           1.4065   -0.4523    0.0000 H       1  UNL1        0.0236
     34 H           2.1516   -0.9145    0.0000 H       1  UNL1        0.0236
     35 H           4.8535    2.6787    0.0000 H       1  UNL1        0.0271
     36 H           4.1569    3.0142    0.0000 H       1  UNL1        0.0271
     37 H           3.5046    3.0142    0.0000 H       1  UNL1        0.0266
     38 H           2.8080    2.6787    0.0000 H       1  UNL1        0.0266
     39 H           6.0284    1.9097    0.0000 H       1  UNL1        0.0235
     40 H           6.0612    2.7859    0.0000 H       1  UNL1        0.0235
     41 H           5.1850    2.8187    0.0000 H       1  UNL1        0.0235
     42 H           5.7700    0.9219    0.0000 H       1  UNL1        0.0235
     43 H           6.4755    1.4425    0.0000 H       1  UNL1        0.0235
     44 H           5.9549    2.1480    0.0000 H       1  UNL1        0.0235
     45 H           5.5258   -2.8670    0.0000 H       1  UNL1        0.0342
     46 H           6.4018   -2.8284    0.0000 H       1  UNL1        0.0342
     47 H           6.3633   -1.9525    0.0000 H       1  UNL1        0.0342
@<TRIPOS>BOND
     1     7     1    1
     2     1    18    1
     3     2    18    2
     4     3     4    1
     5     3     5    1
     6     3    11    1
     7     3    12    1
     8     4     7    1
     9     4     8    1
    10     4    13    1
    11     5     6    1
    12     5     9    1
    13     5    20    1
    14     6     7    1
    15     6    10    1
    16     6    21    1
    17     7    22    1
    18     8     9    1
    19     8    23    1
    20     8    24    1
    21     9    25    1
    22     9    26    1
    23    10    14    1
    24    10    16    1
    25    10    17    1
    26    11    15    1
    27    11    27    1
    28    11    28    1
    29    12    29    1
    30    12    30    1
    31    12    31    1
    32    13    32    1
    33    13    33    1
    34    13    34    1
    35    14    15    1
    36    14    35    1
    37    14    36    1
    38    15    37    1
    39    15    38    1
    40    16    39    1
    41    16    40    1
    42    16    41    1
    43    17    42    1
    44    17    43    1
    45    17    44    1
    46    18    19    1
    47    19    45    1
    48    19    46    1
    49    19    47    1
