@<TRIPOS>MOLECULE
IMPHY003866
 84 88 0 0 0
SMALL
GASTEIGER

@<TRIPOS>ATOM
      1 O           6.1847   -2.9091    0.0000 O.3     1  UNL1       -0.3915
      2 O           2.5357   -1.8922    0.0000 O.3     1  UNL1       -0.3886
      3 O           2.5519    0.1994    0.0000 O.3     1  UNL1       -0.3892
      4 O           4.3500   -3.6701    0.0000 O.3     1  UNL1       -0.3944
      5 O          11.4608    1.1943    0.0000 O.3     1  UNL1       -0.4802
      6 O          10.6064   -0.3123    0.0000 O.2     1  UNL1       -0.2504
      7 C           7.0628   -0.3398    0.0000 C.3     1  UNL1       -0.0170
      8 C           5.2868   -0.3467    0.0000 C.3     1  UNL1       -0.0202
      9 C           6.1968    0.1601    0.0000 C.3     1  UNL1       -0.0255
     10 C           7.9288    0.1601    0.0000 C.3     1  UNL1       -0.0050
     11 C           5.2787   -1.3883    0.0000 C.3     1  UNL1        0.0007
     12 C           7.0789   -1.3814    0.0000 C.3     1  UNL1       -0.0201
     13 C           6.1808   -1.9091    0.0000 C.3     1  UNL1        0.0597
     14 C           4.3433   -1.9380    0.0000 C.3     1  UNL1        0.0250
     15 C           7.9288    1.1602    0.0000 C.2     1  UNL1       -0.0629
     16 C           4.3599    0.2174    0.0000 C.3     1  UNL1       -0.0184
     17 C           6.1968    1.1602    0.0000 C.3     1  UNL1       -0.0306
     18 C           8.8228    1.6948    0.0000 C.3     1  UNL1       -0.0031
     19 C           8.8228   -0.3745    0.0000 C.3     1  UNL1       -0.0424
     20 C           9.7288    1.1810    0.0000 C.3     1  UNL1        0.0741
     21 C           7.7056   -1.1059    0.0000 C.3     1  UNL1       -0.0584
     22 C           3.4037   -1.3955    0.0000 C.3     1  UNL1        0.0888
     23 C           9.7288    0.1393    0.0000 C.3     1  UNL1       -0.0359
     24 C           3.4120   -0.3106    0.0000 C.3     1  UNL1        0.0822
     25 C           5.2945    0.6533    0.0000 C.3     1  UNL1       -0.0588
     26 C           7.0628    1.6602    0.0000 C.2     1  UNL1       -0.0836
     27 C           8.2709   -0.7795    0.0000 C.3     1  UNL1       -0.0553
     28 C           8.7977    2.7795    0.0000 C.3     1  UNL1       -0.0403
     29 C          10.6726    1.7162    0.0000 C.3     1  UNL1       -0.0362
     30 C           9.7288    3.3364    0.0000 C.3     1  UNL1       -0.0343
     31 C           3.8467   -2.8060    0.0000 C.3     1  UNL1        0.0524
     32 C           4.8466   -2.8021    0.0000 C.3     1  UNL1       -0.0547
     33 C          10.6726    2.8012    0.0000 C.3     1  UNL1       -0.0468
     34 C          10.5987    0.6877    0.0000 C.2     1  UNL1        0.3115
     35 C          10.2188    4.2082    0.0000 C.3     1  UNL1       -0.0598
     36 C           9.2188    4.1966    0.0000 C.3     1  UNL1       -0.0598
     37 H           6.9329    0.5851    0.0000 H       1  UNL1        0.0315
     38 H           5.2820   -2.2383    0.0000 H       1  UNL1        0.0338
     39 H           7.2969   -1.9618    0.0000 H       1  UNL1        0.0296
     40 H           7.6880   -1.2659    0.0000 H       1  UNL1        0.0296
     41 H           6.7195   -2.2160    0.0000 H       1  UNL1        0.0596
     42 H           4.7681    0.6840    0.0000 H       1  UNL1        0.0296
     43 H           3.9700    0.6994    0.0000 H       1  UNL1        0.0296
     44 H           5.9847    1.7428    0.0000 H       1  UNL1        0.0310
     45 H           5.5862    1.0525    0.0000 H       1  UNL1        0.0310
     46 H           9.5522    2.1311    0.0000 H       1  UNL1        0.0357
     47 H           8.4182   -0.8443    0.0000 H       1  UNL1        0.0274
     48 H           9.2164   -0.8535    0.0000 H       1  UNL1        0.0274
     49 H           7.2306   -1.5044    0.0000 H       1  UNL1        0.0235
     50 H           8.1041   -1.5808    0.0000 H       1  UNL1        0.0235
     51 H           8.1805   -0.7074    0.0000 H       1  UNL1        0.0235
     52 H           3.4025   -2.0155    0.0000 H       1  UNL1        0.0625
     53 H           9.9379   -0.4444    0.0000 H       1  UNL1        0.0276
     54 H          10.3397    0.2454    0.0000 H       1  UNL1        0.0276
     55 H           2.8722   -0.6154    0.0000 H       1  UNL1        0.0619
     56 H           5.9145    0.6485    0.0000 H       1  UNL1        0.0235
     57 H           5.2993    1.2733    0.0000 H       1  UNL1        0.0235
     58 H           4.6745    0.6581    0.0000 H       1  UNL1        0.0235
     59 H           7.0628    2.2802    0.0000 H       1  UNL1        0.0572
     60 H           7.6884   -0.9916    0.0000 H       1  UNL1        0.0238
     61 H           8.4830   -1.3621    0.0000 H       1  UNL1        0.0238
     62 H           8.8535   -0.5674    0.0000 H       1  UNL1        0.0238
     63 H           8.5752    3.3582    0.0000 H       1  UNL1        0.0276
     64 H           8.1894    2.6593    0.0000 H       1  UNL1        0.0276
     65 H          10.8817    1.1325    0.0000 H       1  UNL1        0.0276
     66 H          11.2835    1.8223    0.0000 H       1  UNL1        0.0276
     67 H           3.3702   -2.4093    0.0000 H       1  UNL1        0.0563
     68 H           3.3732   -3.2063    0.0000 H       1  UNL1        0.0563
     69 H           4.3109   -3.1142    0.0000 H       1  UNL1        0.0237
     70 H           5.1587   -3.3378    0.0000 H       1  UNL1        0.0237
     71 H           5.3824   -2.4900    0.0000 H       1  UNL1        0.0237
     72 H          11.2835    2.6951    0.0000 H       1  UNL1        0.0271
     73 H          10.8817    3.3849    0.0000 H       1  UNL1        0.0271
     74 H           6.7228   -3.2170    0.0000 H       1  UNL1        0.2098
     75 H           2.0000   -1.5801    0.0000 H       1  UNL1        0.2099
     76 H           2.5590    0.8194    0.0000 H       1  UNL1        0.2099
     77 H          10.7593    3.9044    0.0000 H       1  UNL1        0.0235
     78 H          10.5226    4.7487    0.0000 H       1  UNL1        0.0235
     79 H           9.6783    4.5120    0.0000 H       1  UNL1        0.0235
     80 H           9.7522    4.5128    0.0000 H       1  UNL1        0.0235
     81 H           8.9027    4.7299    0.0000 H       1  UNL1        0.0235
     82 H           8.6855    3.8804    0.0000 H       1  UNL1        0.0235
     83 H           4.0421   -4.2082    0.0000 H       1  UNL1        0.2094
     84 H          12.0001    0.8885    0.0000 H       1  UNL1        0.2951
@<TRIPOS>BOND
     1    13     1    1
     2     1    74    1
     3    22     2    1
     4     2    75    1
     5    24     3    1
     6     3    76    1
     7     4    31    1
     8     4    83    1
     9     5    34    1
    10     5    84    1
    11     6    34    2
    12     7     9    1
    13     7    10    1
    14     7    12    1
    15     7    21    1
    16     8     9    1
    17     8    11    1
    18     8    16    1
    19     8    25    1
    20     9    17    1
    21     9    37    1
    22    10    15    1
    23    10    19    1
    24    10    27    1
    25    11    13    1
    26    11    14    1
    27    11    38    1
    28    12    13    1
    29    12    39    1
    30    12    40    1
    31    13    41    1
    32    14    22    1
    33    14    31    1
    34    14    32    1
    35    15    18    1
    36    15    26    2
    37    16    24    1
    38    16    42    1
    39    16    43    1
    40    17    26    1
    41    17    44    1
    42    17    45    1
    43    18    20    1
    44    18    28    1
    45    18    46    1
    46    19    23    1
    47    19    47    1
    48    19    48    1
    49    20    23    1
    50    20    29    1
    51    20    34    1
    52    21    49    1
    53    21    50    1
    54    21    51    1
    55    22    24    1
    56    22    52    1
    57    23    53    1
    58    23    54    1
    59    24    55    1
    60    25    56    1
    61    25    57    1
    62    25    58    1
    63    26    59    1
    64    27    60    1
    65    27    61    1
    66    27    62    1
    67    28    30    1
    68    28    63    1
    69    28    64    1
    70    29    33    1
    71    29    65    1
    72    29    66    1
    73    30    33    1
    74    30    35    1
    75    30    36    1
    76    31    67    1
    77    31    68    1
    78    32    69    1
    79    32    70    1
    80    32    71    1
    81    33    72    1
    82    33    73    1
    83    35    77    1
    84    35    78    1
    85    35    79    1
    86    36    80    1
    87    36    81    1
    88    36    82    1
