@<TRIPOS>MOLECULE
IMPHY010296
 18 17 0 0 0
SMALL
GASTEIGER

@<TRIPOS>ATOM
      1 O           2.5369    0.0000    0.0000 O.3     1  UNL1       -0.4804
      2 O           3.4030   -1.5000    0.0000 O.2     1  UNL1       -0.2507
      3 C           6.0010    1.0000    0.0000 C.3     1  UNL1       -0.0376
      4 C           6.0010    0.0000    0.0000 C.2     1  UNL1       -0.0877
      5 C           4.2690    0.0000    0.0000 C.3     1  UNL1        0.0630
      6 C           5.1350   -0.5000    0.0000 C.2     1  UNL1       -0.0774
      7 C           6.8671    1.5000    0.0000 C.3     1  UNL1       -0.0618
      8 C           3.4030   -0.5000    0.0000 C.2     1  UNL1        0.3085
      9 H           5.7890    1.5826    0.0000 H       1  UNL1        0.0305
     10 H           5.3905    0.8923    0.0000 H       1  UNL1        0.0305
     11 H           6.5380   -0.3100    0.0000 H       1  UNL1        0.0569
     12 H           4.6675    0.4749    0.0000 H       1  UNL1        0.0420
     13 H           3.8705    0.4749    0.0000 H       1  UNL1        0.0420
     14 H           5.1350   -1.1200    0.0000 H       1  UNL1        0.0574
     15 H           7.1771    0.9631    0.0000 H       1  UNL1        0.0233
     16 H           7.4040    1.8100    0.0000 H       1  UNL1        0.0233
     17 H           6.5571    2.0369    0.0000 H       1  UNL1        0.0233
     18 H           2.0000   -0.3100    0.0000 H       1  UNL1        0.2951
@<TRIPOS>BOND
     1     1     8    1
     2     1    18    1
     3     2     8    2
     4     3     4    1
     5     3     7    1
     6     3     9    1
     7     3    10    1
     8     4     6    2
     9     4    11    1
    10     5     6    1
    11     5     8    1
    12     5    12    1
    13     5    13    1
    14     6    14    1
    15     7    15    1
    16     7    16    1
    17     7    17    1
