@<TRIPOS>MOLECULE
IMPHY004669
 26 25 0 0 0
SMALL
GASTEIGER

@<TRIPOS>ATOM
      1 C           4.5981    0.0000    0.0000 C.3     1  UNL1        0.0157
      2 C           3.7320    0.5000    0.0000 C.2     1  UNL1       -0.0745
      3 C           5.4641    0.5000    0.0000 C.2     1  UNL1       -0.0691
      4 C           2.8660    0.0000    0.0000 C.2     1  UNL1       -0.0788
      5 C           4.5981   -1.0000    0.0000 C.2     1  UNL1       -0.0803
      6 C           6.3301    0.0000    0.0000 C.3     1  UNL1       -0.0432
      7 C           2.0000    0.5000    0.0000 C.3     1  UNL1       -0.0440
      8 C           2.8660   -1.0000    0.0000 C.3     1  UNL1       -0.0440
      9 C           5.4641    1.5000    0.0000 C.2     1  UNL1       -0.0989
     10 C           3.7320   -1.5000    0.0000 C.2     1  UNL1       -0.1018
     11 H           5.3342   -0.4250    0.0000 H       1  UNL1        0.0431
     12 H           3.7320    1.1200    0.0000 H       1  UNL1        0.0580
     13 H           5.1350   -1.3100    0.0000 H       1  UNL1        0.0575
     14 H           6.0201   -0.5369    0.0000 H       1  UNL1        0.0275
     15 H           6.8671   -0.3100    0.0000 H       1  UNL1        0.0275
     16 H           6.6401    0.5369    0.0000 H       1  UNL1        0.0275
     17 H           2.2460   -1.0000    0.0000 H       1  UNL1        0.0274
     18 H           2.8660   -1.6200    0.0000 H       1  UNL1        0.0274
     19 H           3.4860   -1.0000    0.0000 H       1  UNL1        0.0274
     20 H           2.3100    1.0369    0.0000 H       1  UNL1        0.0274
     21 H           1.4631    0.8100    0.0000 H       1  UNL1        0.0274
     22 H           1.6900   -0.0369    0.0000 H       1  UNL1        0.0274
     23 H           6.0010    1.8100    0.0000 H       1  UNL1        0.0535
     24 H           4.9272    1.8100    0.0000 H       1  UNL1        0.0535
     25 H           3.1951   -1.1900    0.0000 H       1  UNL1        0.0532
     26 H           3.7320   -2.1200    0.0000 H       1  UNL1        0.0532
@<TRIPOS>BOND
     1     1     2    1
     2     1     3    1
     3     1     5    1
     4     1    11    1
     5     2     4    2
     6     2    12    1
     7     3     6    1
     8     3     9    2
     9     4     7    1
    10     4     8    1
    11     5    10    2
    12     5    13    1
    13     6    14    1
    14     6    15    1
    15     6    16    1
    16     7    20    1
    17     7    21    1
    18     7    22    1
    19     8    17    1
    20     8    18    1
    21     8    19    1
    22     9    23    1
    23     9    24    1
    24    10    25    1
    25    10    26    1
