@<TRIPOS>MOLECULE
IMPHY002226
 91 94 0 0 0
SMALL
GASTEIGER

@<TRIPOS>ATOM
      1 O           5.1350   -3.9027    0.0000 O.3     1  UNL1       -0.3404
      2 O          12.4971    1.0481    0.0000 O.3     1  UNL1       -0.3394
      3 O           6.8671   -3.9027    0.0000 O.3     1  UNL1       -0.3061
      4 O           5.1350   -6.9027    0.0000 O.3     1  UNL1       -0.3864
      5 O          14.1247    1.6405    0.0000 O.3     1  UNL1       -0.3484
      6 O           3.4030   -5.9027    0.0000 O.3     1  UNL1       -0.3865
      7 O           6.8671   -5.9027    0.0000 O.3     1  UNL1       -0.3841
      8 O          11.5535   -1.4236    0.0000 O.3     1  UNL1       -0.3864
      9 O          13.5232   -1.7709    0.0000 O.3     1  UNL1       -0.3864
     10 O          14.8087   -0.2389    0.0000 O.3     1  UNL1       -0.3841
     11 O          10.2267   -0.3103    0.0000 O.3     1  UNL1       -0.4619
     12 O           6.0010   -2.4027    0.0000 O.2     1  UNL1       -0.4666
     13 O           2.5369   -4.4027    0.0000 O.3     1  UNL1       -0.3924
     14 O           8.8999    0.8030    0.0000 O.2     1  UNL1       -0.2508
     15 O           6.0010    0.5973    0.0000 O.3     1  UNL1       -0.4646
     16 O           7.2091    1.0370    0.0000 O.2     1  UNL1       -0.2452
     17 O          15.0270    6.7577    0.0000 O.3     1  UNL1       -0.5033
     18 O          13.0574    7.1050    0.0000 O.3     1  UNL1       -0.5033
     19 C           5.1350   -5.9027    0.0000 C.3     1  UNL1        0.1141
     20 C           4.2690   -5.4027    0.0000 C.3     1  UNL1        0.1119
     21 C           6.0010   -5.4027    0.0000 C.3     1  UNL1        0.1343
     22 C          12.1963   -0.6576    0.0000 C.3     1  UNL1        0.1129
     23 C           4.2690   -4.4027    0.0000 C.3     1  UNL1        0.1130
     24 C          13.1811   -0.8312    0.0000 C.3     1  UNL1        0.1141
     25 C          11.8543    0.2821    0.0000 C.3     1  UNL1        0.1240
     26 C           6.0010   -4.4027    0.0000 C.3     1  UNL1        0.1921
     27 C          13.8239   -0.0652    0.0000 C.3     1  UNL1        0.1341
     28 C          13.4819    0.8745    0.0000 C.3     1  UNL1        0.1880
     29 C          10.8695    0.4557    0.0000 C.3     1  UNL1        0.1211
     30 C           6.8671   -2.9027    0.0000 C.3     1  UNL1        0.2266
     31 C           7.7331   -1.4027    0.0000 C.3     1  UNL1        0.0307
     32 C           3.4030   -3.9027    0.0000 C.3     1  UNL1        0.0730
     33 C           7.7331   -2.4027    0.0000 C.2     1  UNL1        0.0019
     34 C           8.5991   -0.9027    0.0000 C.3     1  UNL1        0.0559
     35 C           6.8671   -0.9027    0.0000 C.2     1  UNL1        0.0785
     36 C           9.2419   -0.1367    0.0000 C.2     1  UNL1        0.3081
     37 C          13.7827    2.5802    0.0000 C.3     1  UNL1        0.0547
     38 C           6.0010   -1.4027    0.0000 C.2     1  UNL1        0.0988
     39 C           8.5991   -2.9027    0.0000 C.2     1  UNL1       -0.0814
     40 C          14.4255    3.3463    0.0000 C.3     1  UNL1       -0.0039
     41 C           6.8671    0.0973    0.0000 C.2     1  UNL1        0.3384
     42 C           9.4651   -2.4027    0.0000 C.3     1  UNL1       -0.0464
     43 C          14.0834    4.2860    0.0000 C.ar    1  UNL1       -0.0415
     44 C          14.7262    5.0520    0.0000 C.ar    1  UNL1       -0.0133
     45 C          13.0986    4.4596    0.0000 C.ar    1  UNL1       -0.0548
     46 C           6.0010    1.5973    0.0000 C.3     1  UNL1        0.0820
     47 C          14.3842    5.9917    0.0000 C.ar    1  UNL1        0.1585
     48 C          12.7566    5.3993    0.0000 C.ar    1  UNL1       -0.0163
     49 C          13.3994    6.1654    0.0000 C.ar    1  UNL1        0.1582
     50 H           5.6720   -6.2127    0.0000 H       1  UNL1        0.0648
     51 H           4.2690   -6.0227    0.0000 H       1  UNL1        0.0647
     52 H           6.5380   -5.0927    0.0000 H       1  UNL1        0.0671
     53 H          11.5857   -0.5499    0.0000 H       1  UNL1        0.0647
     54 H           4.2690   -3.7827    0.0000 H       1  UNL1        0.0647
     55 H          13.7917   -0.9389    0.0000 H       1  UNL1        0.0648
     56 H          11.6423    0.8647    0.0000 H       1  UNL1        0.0658
     57 H           6.0010   -3.7827    0.0000 H       1  UNL1        0.0939
     58 H          14.2224    0.4097    0.0000 H       1  UNL1        0.0671
     59 H          13.2698    1.4571    0.0000 H       1  UNL1        0.0937
     60 H          11.0815    1.0384    0.0000 H       1  UNL1        0.0724
     61 H          10.3326    0.7657    0.0000 H       1  UNL1        0.0724
     62 H           7.4040   -3.2127    0.0000 H       1  UNL1        0.1109
     63 H           8.2700   -1.7127    0.0000 H       1  UNL1        0.0404
     64 H           3.8015   -3.4278    0.0000 H       1  UNL1        0.0584
     65 H           3.0044   -3.4278    0.0000 H       1  UNL1        0.0584
     66 H           8.6711   -1.5185    0.0000 H       1  UNL1        0.0387
     67 H           8.2006   -0.4278    0.0000 H       1  UNL1        0.0387
     68 H           4.5981   -7.2127    0.0000 H       1  UNL1        0.2100
     69 H           3.4030   -6.5227    0.0000 H       1  UNL1        0.2100
     70 H           6.8671   -6.5227    0.0000 H       1  UNL1        0.2101
     71 H          11.7656   -2.0063    0.0000 H       1  UNL1        0.2100
     72 H          14.1337   -1.8786    0.0000 H       1  UNL1        0.2100
     73 H          15.2073    0.2361    0.0000 H       1  UNL1        0.2101
     74 H          13.3841    3.0552    0.0000 H       1  UNL1        0.0564
     75 H          13.2457    2.2702    0.0000 H       1  UNL1        0.0564
     76 H           5.4641   -1.0927    0.0000 H       1  UNL1        0.1030
     77 H           8.5991   -3.5227    0.0000 H       1  UNL1        0.0571
     78 H           2.0000   -4.0927    0.0000 H       1  UNL1        0.2095
     79 H          14.8240    2.8713    0.0000 H       1  UNL1        0.0335
     80 H          14.9624    3.6563    0.0000 H       1  UNL1        0.0335
     81 H           9.7751   -2.9396    0.0000 H       1  UNL1        0.0272
     82 H          10.0021   -2.0927    0.0000 H       1  UNL1        0.0272
     83 H           9.1551   -1.8658    0.0000 H       1  UNL1        0.0272
     84 H          15.3368    4.9443    0.0000 H       1  UNL1        0.0658
     85 H          12.7001    3.9847    0.0000 H       1  UNL1        0.0621
     86 H           6.6210    1.5973    0.0000 H       1  UNL1        0.0661
     87 H           6.0010    2.2173    0.0000 H       1  UNL1        0.0661
     88 H           5.3810    1.5973    0.0000 H       1  UNL1        0.0661
     89 H          12.1460    5.5070    0.0000 H       1  UNL1        0.0655
     90 H          15.6376    6.6501    0.0000 H       1  UNL1        0.2923
     91 H          12.4468    7.2127    0.0000 H       1  UNL1        0.2923
@<TRIPOS>BOND
     1     1    23    1
     2     1    26    1
     3     2    25    1
     4     2    28    1
     5    26     3    1
     6    30     3    1
     7    19     4    1
     8     4    68    1
     9    28     5    1
    10     5    37    1
    11    20     6    1
    12     6    69    1
    13    21     7    1
    14     7    70    1
    15    22     8    1
    16     8    71    1
    17    24     9    1
    18     9    72    1
    19    27    10    1
    20    10    73    1
    21    11    29    1
    22    11    36    1
    23    12    30    1
    24    12    38    1
    25    13    32    1
    26    13    78    1
    27    14    36    2
    28    15    41    1
    29    15    46    1
    30    16    41    2
    31    17    47    1
    32    17    90    1
    33    18    49    1
    34    18    91    1
    35    19    20    1
    36    19    21    1
    37    19    50    1
    38    20    23    1
    39    20    51    1
    40    21    26    1
    41    21    52    1
    42    22    24    1
    43    22    25    1
    44    22    53    1
    45    23    32    1
    46    23    54    1
    47    24    27    1
    48    24    55    1
    49    25    29    1
    50    25    56    1
    51    26    57    1
    52    27    28    1
    53    27    58    1
    54    28    59    1
    55    29    60    1
    56    29    61    1
    57    30    33    1
    58    30    62    1
    59    31    33    1
    60    31    34    1
    61    31    35    1
    62    31    63    1
    63    32    64    1
    64    32    65    1
    65    33    39    2
    66    34    36    1
    67    34    66    1
    68    34    67    1
    69    35    38    2
    70    35    41    1
    71    37    40    1
    72    37    74    1
    73    37    75    1
    74    38    76    1
    75    39    42    1
    76    39    77    1
    77    40    43    1
    78    40    79    1
    79    40    80    1
    80    42    81    1
    81    42    82    1
    82    42    83    1
    83    43    44   ar
    84    43    45   ar
    85    44    47   ar
    86    44    84    1
    87    45    48   ar
    88    45    85    1
    89    46    86    1
    90    46    87    1
    91    46    88    1
    92    47    49   ar
    93    48    49   ar
    94    48    89    1
