@<TRIPOS>MOLECULE
IMPHY011395
 25 26 0 0 0
SMALL
GASTEIGER

@<TRIPOS>ATOM
      1 O           5.4920   -1.0347    0.0000 O.2     1  UNL1       -0.4220
      2 O           2.0000    1.0000    0.0000 O.3     1  UNL1       -0.4914
      3 O           2.0000   -1.0000    0.0000 O.3     1  UNL1       -0.4913
      4 O           7.2622   -1.0241    0.0000 O.2     1  UNL1       -0.2452
      5 C           4.5981    0.5000    0.0000 C.ar    1  UNL1        0.0213
      6 C           4.5981   -0.5000    0.0000 C.ar    1  UNL1        0.1428
      7 C           2.8660    0.5000    0.0000 C.ar    1  UNL1        0.1623
      8 C           3.7320    1.0000    0.0000 C.ar    1  UNL1       -0.0056
      9 C           2.8660   -0.5000    0.0000 C.ar    1  UNL1        0.1650
     10 C           3.7320   -1.0000    0.0000 C.ar    1  UNL1        0.0267
     11 C           5.4920    1.0347    0.0000 C.ar    1  UNL1       -0.0442
     12 C           6.3981    0.5208    0.0000 C.ar    1  UNL1        0.0236
     13 C           6.3981   -0.5208    0.0000 C.ar    1  UNL1        0.3372
     14 C           2.0000    2.0000    0.0000 C.3     1  UNL1        0.0790
     15 C           2.0000   -2.0000    0.0000 C.3     1  UNL1        0.0790
     16 H           3.7320    1.6200    0.0000 H       1  UNL1        0.0662
     17 H           3.7320   -1.6200    0.0000 H       1  UNL1        0.0692
     18 H           5.4848    1.6546    0.0000 H       1  UNL1        0.0627
     19 H           6.9338    0.8329    0.0000 H       1  UNL1        0.0689
     20 H           2.6200    2.0000    0.0000 H       1  UNL1        0.0660
     21 H           2.0000    2.6200    0.0000 H       1  UNL1        0.0660
     22 H           1.3800    2.0000    0.0000 H       1  UNL1        0.0660
     23 H           1.3800   -2.0000    0.0000 H       1  UNL1        0.0660
     24 H           2.0000   -2.6200    0.0000 H       1  UNL1        0.0660
     25 H           2.6200   -2.0000    0.0000 H       1  UNL1        0.0660
@<TRIPOS>BOND
     1     1     6   ar
     2     1    13   ar
     3     2     7    1
     4     2    14    1
     5     3     9    1
     6     3    15    1
     7     4    13    2
     8     5     6   ar
     9     5     8   ar
    10     5    11   ar
    11     6    10   ar
    12     7     8   ar
    13     7     9   ar
    14     8    16    1
    15     9    10   ar
    16    10    17    1
    17    11    12   ar
    18    11    18    1
    19    12    13   ar
    20    12    19    1
    21    14    20    1
    22    14    21    1
    23    14    22    1
    24    15    23    1
    25    15    24    1
    26    15    25    1
