@<TRIPOS>MOLECULE
IMPHY001467
 51 56 0 0 0
SMALL
GASTEIGER

@<TRIPOS>ATOM
      1 O           7.8436   -0.3417    0.0000 O.3     1  UNL1       -0.4677
      2 O           6.9776   -1.8417    0.0000 O.2     1  UNL1       -0.2505
      3 N           3.7124    1.3953    0.0000 N.3     1  UNL1       -0.2979
      4 N           5.0363   -1.8135    0.0000 N.pl3   1  UNL1       -0.3364
      5 C           4.3795   -0.3417    0.0000 C.3     1  UNL1        0.0365
      6 C           5.2455   -0.8417    0.0000 C.3     1  UNL1        0.0561
      7 C           4.3795    0.6583    0.0000 C.3     1  UNL1        0.0277
      8 C           5.2455    1.1583    0.0000 C.3     1  UNL1       -0.0118
      9 C           6.1115   -0.3417    0.0000 C.3     1  UNL1        0.0789
     10 C           6.1115    0.6583    0.0000 C.3     1  UNL1       -0.0309
     11 C           4.8455   -0.2417    0.0000 C.3     1  UNL1       -0.0295
     12 C           4.8455    0.5583    0.0000 C.3     1  UNL1       -0.0439
     13 C           3.4077   -0.1325    0.0000 C.3     1  UNL1       -0.0270
     14 C           5.4666    2.1248    0.0000 C.3     1  UNL1       -0.0447
     15 C           3.6425   -1.0088    0.0000 C.ar    1  UNL1       -0.0168
     16 C           3.0546    0.9232    0.0000 C.3     1  UNL1        0.0001
     17 C           3.7934    2.3834    0.0000 C.3     1  UNL1       -0.0008
     18 C           4.7089    2.7641    0.0000 C.3     1  UNL1       -0.0396
     19 C           4.0476   -1.9166    0.0000 C.ar    1  UNL1        0.0314
     20 C           6.9776   -0.8417    0.0000 C.2     1  UNL1        0.3121
     21 C           2.6144   -0.8856    0.0000 C.ar    1  UNL1       -0.0562
     22 C           3.4527   -2.7641    0.0000 C.ar    1  UNL1       -0.0406
     23 C           2.0000   -1.7191    0.0000 C.ar    1  UNL1       -0.0614
     24 C           2.4220   -2.6647    0.0000 C.ar    1  UNL1       -0.0600
     25 C           8.7096   -0.8417    0.0000 C.3     1  UNL1        0.0817
     26 H           3.8009    0.4353    0.0000 H       1  UNL1        0.0477
     27 H           6.1115   -0.9617    0.0000 H       1  UNL1        0.0435
     28 H           6.7221    0.5506    0.0000 H       1  UNL1        0.0280
     29 H           6.3236    1.2409    0.0000 H       1  UNL1        0.0280
     30 H           4.2585   -0.0422    0.0000 H       1  UNL1        0.0286
     31 H           5.4389   -0.0621    0.0000 H       1  UNL1        0.0286
     32 H           4.4677    1.0499    0.0000 H       1  UNL1        0.0272
     33 H           5.4389    0.3786    0.0000 H       1  UNL1        0.0272
     34 H           2.7941   -0.2218    0.0000 H       1  UNL1        0.0287
     35 H           3.3867   -0.7522    0.0000 H       1  UNL1        0.0287
     36 H           6.0416    1.8927    0.0000 H       1  UNL1        0.0271
     37 H           5.7866    2.6558    0.0000 H       1  UNL1        0.0271
     38 H           2.7451    1.4604    0.0000 H       1  UNL1        0.0427
     39 H           2.4892    0.6689    0.0000 H       1  UNL1        0.0427
     40 H           5.4504   -2.2750    0.0000 H       1  UNL1        0.1467
     41 H           3.6488    2.9863    0.0000 H       1  UNL1        0.0427
     42 H           3.1752    2.3359    0.0000 H       1  UNL1        0.0427
     43 H           5.1785    3.1689    0.0000 H       1  UNL1        0.0278
     44 H           4.3834    3.2918    0.0000 H       1  UNL1        0.0278
     45 H           2.3683   -0.3165    0.0000 H       1  UNL1        0.0621
     46 H           3.7119   -3.3273    0.0000 H       1  UNL1        0.0636
     47 H           1.3836   -1.6525    0.0000 H       1  UNL1        0.0618
     48 H           2.0599   -3.1680    0.0000 H       1  UNL1        0.0618
     49 H           8.3996   -1.3786    0.0000 H       1  UNL1        0.0661
     50 H           9.2465   -1.1517    0.0000 H       1  UNL1        0.0661
     51 H           9.0196   -0.3048    0.0000 H       1  UNL1        0.0661
@<TRIPOS>BOND
     1     1    20    1
     2     1    25    1
     3     2    20    2
     4     3     7    1
     5     3    16    1
     6     3    17    1
     7     6     4    1
     8     4    19    1
     9     4    40    1
    10     5     6    1
    11     5     7    1
    12     5    13    1
    13     5    15    1
    14     6     9    1
    15     6    11    1
    16     7     8    1
    17     7    26    1
    18     8    10    1
    19     8    12    1
    20     8    14    1
    21     9    10    1
    22     9    20    1
    23     9    27    1
    24    10    28    1
    25    10    29    1
    26    11    12    1
    27    11    30    1
    28    11    31    1
    29    12    32    1
    30    12    33    1
    31    13    16    1
    32    13    34    1
    33    13    35    1
    34    14    18    1
    35    14    36    1
    36    14    37    1
    37    15    19   ar
    38    15    21   ar
    39    16    38    1
    40    16    39    1
    41    17    18    1
    42    17    41    1
    43    17    42    1
    44    18    43    1
    45    18    44    1
    46    19    22   ar
    47    21    23   ar
    48    21    45    1
    49    22    24   ar
    50    22    46    1
    51    23    24   ar
    52    23    47    1
    53    24    48    1
    54    25    49    1
    55    25    50    1
    56    25    51    1
