@<TRIPOS>MOLECULE
IMPHY012859
 97 107 0 0 0
SMALL
GASTEIGER

@<TRIPOS>ATOM
      1 O           7.3097    1.3292    0.0000 O.3     1  UNL1       -0.3224
      2 O           8.6515    2.5848    0.0000 O.3     1  UNL1       -0.3482
      3 O           6.8286   -2.6316    0.0000 O.3     1  UNL1       -0.4666
      4 O           5.4426   -2.9129    0.0000 O.2     1  UNL1       -0.2487
      5 N           6.0461   -0.1966    0.0000 N.pl3   1  UNL1       -0.2856
      6 N           4.8170   -1.4664    0.0000 N.3     1  UNL1       -0.2911
      7 N          11.6727    3.3624    0.0000 N.3     1  UNL1       -0.2934
      8 N          13.7808   -0.3079    0.0000 N.ar    1  UNL1       -0.3452
      9 C           7.0106    0.2862    0.0000 C.3     1  UNL1        0.1655
     10 C           7.7703   -0.4885    0.0000 C.3     1  UNL1        0.0466
     11 C           5.3675    0.0937    0.0000 C.3     1  UNL1        0.0582
     12 C           9.0938    0.8398    0.0000 C.3     1  UNL1        0.0172
     13 C           8.8189   -0.2098    0.0000 C.3     1  UNL1       -0.0310
     14 C           8.3644    1.5835    0.0000 C.3     1  UNL1        0.1729
     15 C          10.1004    1.1074    0.0000 C.3     1  UNL1       -0.0252
     16 C           7.5458   -2.1275    0.0000 C.3     1  UNL1       -0.0262
     17 C           7.2688   -1.4434    0.0000 C.ar    1  UNL1       -0.0156
     18 C           4.2801   -0.1058    0.0000 C.3     1  UNL1       -0.0242
     19 C           4.3601   -1.0605    0.0000 C.3     1  UNL1        0.0119
     20 C           5.5492   -1.1841    0.0000 C.3     1  UNL1        0.1296
     21 C          10.3761    2.0686    0.0000 C.3     1  UNL1        0.0018
     22 C           5.9753   -2.6475    0.0000 C.3     1  UNL1        0.0006
     23 C           6.2054   -1.2633    0.0000 C.ar    1  UNL1        0.0365
     24 C          10.9295    0.5482    0.0000 C.3     1  UNL1       -0.0282
     25 C          12.4093    2.3798    0.0000 C.3     1  UNL1        0.0200
     26 C           4.3042   -2.3571    0.0000 C.3     1  UNL1        0.0208
     27 C           3.5359   -1.6745    0.0000 C.2     1  UNL1       -0.0543
     28 C           9.6641    2.8290    0.0000 C.3     1  UNL1        0.0554
     29 C          12.1505    1.4138    0.0000 C.3     1  UNL1        0.0513
     30 C           7.6642    2.2975    0.0000 C.3     1  UNL1       -0.0102
     31 C           8.0447   -2.8934    0.0000 C.ar    1  UNL1       -0.0561
     32 C          13.8410    2.1821    0.0000 C.3     1  UNL1       -0.0093
     33 C           5.9950   -2.0793    0.0000 C.2     1  UNL1        0.3282
     34 C           4.9955   -2.3772    0.0000 C.ar    1  UNL1       -0.0403
     35 C          13.4222    0.6192    0.0000 C.ar    1  UNL1        0.0400
     36 C          14.1993    1.2485    0.0000 C.ar    1  UNL1       -0.0159
     37 C           2.5368   -1.6314    0.0000 C.2     1  UNL1       -0.0863
     38 C           7.0844   -4.2284    0.0000 C.ar    1  UNL1       -0.0614
     39 C          11.1727    4.2284    0.0000 C.3     1  UNL1       -0.0118
     40 C           5.4629   -3.9539    0.0000 C.ar    1  UNL1       -0.0600
     41 C          15.0316    0.7050    0.0000 C.ar    1  UNL1        0.0034
     42 C          14.7735   -0.2550    0.0000 C.ar    1  UNL1        0.0493
     43 C           2.0000   -2.4751    0.0000 C.3     1  UNL1       -0.0465
     44 C          13.2377   -1.1475    0.0000 C.3     1  UNL1        0.0122
     45 C          16.0278    0.9875    0.0000 C.ar    1  UNL1       -0.0523
     46 C          15.4937   -0.9990    0.0000 C.ar    1  UNL1       -0.0376
     47 C           6.7671   -3.6297    0.0000 C.3     1  UNL1        0.0817
     48 C          16.7650    0.2603    0.0000 C.ar    1  UNL1       -0.0611
     49 C          16.4961   -0.7396    0.0000 C.ar    1  UNL1       -0.0598
     50 H           5.2754    0.7068    0.0000 H       1  UNL1        0.0508
     51 H           9.5330    0.4022    0.0000 H       1  UNL1        0.0356
     52 H           8.8733   -0.8274    0.0000 H       1  UNL1        0.0280
     53 H           9.4367   -0.2619    0.0000 H       1  UNL1        0.0280
     54 H           9.9975    0.4960    0.0000 H       1  UNL1        0.0310
     55 H           7.6493   -2.7388    0.0000 H       1  UNL1        0.0288
     56 H           8.1657   -2.1177    0.0000 H       1  UNL1        0.0288
     57 H           4.1882    0.5073    0.0000 H       1  UNL1        0.0288
     58 H           3.6643   -0.1777    0.0000 H       1  UNL1        0.0288
     59 H           4.8029   -0.6265    0.0000 H       1  UNL1        0.0370
     60 H           6.1692   -1.1854    0.0000 H       1  UNL1        0.0622
     61 H          10.5789    2.6545    0.0000 H       1  UNL1        0.0341
     62 H           5.4720   -3.0096    0.0000 H       1  UNL1        0.0427
     63 H           6.2570   -3.1998    0.0000 H       1  UNL1        0.0427
     64 H          10.5236    0.0795    0.0000 H       1  UNL1        0.0287
     65 H          11.3461    0.0891    0.0000 H       1  UNL1        0.0287
     66 H          12.4139    1.7598    0.0000 H       1  UNL1        0.0469
     67 H           3.9249   -2.8475    0.0000 H       1  UNL1        0.0473
     68 H           4.8193   -2.7022    0.0000 H       1  UNL1        0.0473
     69 H          10.1826    3.1691    0.0000 H       1  UNL1        0.0564
     70 H           9.4178    3.3980    0.0000 H       1  UNL1        0.0564
     71 H          12.6528    1.7773    0.0000 H       1  UNL1        0.0527
     72 H           8.1069    2.7316    0.0000 H       1  UNL1        0.0281
     73 H           7.2301    2.7401    0.0000 H       1  UNL1        0.0281
     74 H           7.2216    1.8634    0.0000 H       1  UNL1        0.0281
     75 H           8.6634   -2.9343    0.0000 H       1  UNL1        0.0621
     76 H          14.4488    2.3044    0.0000 H       1  UNL1        0.0329
     77 H          13.8219    2.8018    0.0000 H       1  UNL1        0.0329
     78 H           4.3978   -2.2123    0.0000 H       1  UNL1        0.0636
     79 H           2.2502   -1.0816    0.0000 H       1  UNL1        0.0569
     80 H           7.3200   -4.8019    0.0000 H       1  UNL1        0.0618
     81 H          11.7096    4.5384    0.0000 H       1  UNL1        0.0391
     82 H          10.8627    4.7654    0.0000 H       1  UNL1        0.0391
     83 H          10.6358    3.9184    0.0000 H       1  UNL1        0.0391
     84 H           5.0517   -4.4179    0.0000 H       1  UNL1        0.0618
     85 H           1.4769   -2.1423    0.0000 H       1  UNL1        0.0272
     86 H           1.6672   -2.9982    0.0000 H       1  UNL1        0.0272
     87 H           2.5231   -2.8079    0.0000 H       1  UNL1        0.0272
     88 H          12.7171   -0.8108    0.0000 H       1  UNL1        0.0456
     89 H          12.9009   -1.6681    0.0000 H       1  UNL1        0.0456
     90 H          13.7582   -1.4843    0.0000 H       1  UNL1        0.0456
     91 H          16.1819    1.5880    0.0000 H       1  UNL1        0.0624
     92 H          15.3258   -1.5959    0.0000 H       1  UNL1        0.0638
     93 H           6.1482   -3.5916    0.0000 H       1  UNL1        0.0661
     94 H           6.7289   -4.2485    0.0000 H       1  UNL1        0.0661
     95 H           7.3859   -3.6678    0.0000 H       1  UNL1        0.0661
     96 H          17.3634    0.4226    0.0000 H       1  UNL1        0.0618
     97 H          16.9324   -1.1801    0.0000 H       1  UNL1        0.0618
@<TRIPOS>BOND
     1     1     9    1
     2     1    14    1
     3     2    14    1
     4     2    28    1
     5     3    33    1
     6     3    47    1
     7     4    33    2
     8     5     9    1
     9     5    20    1
    10     5    23    1
    11     6    11    1
    12     6    22    1
    13     6    26    1
    14     7    25    1
    15     7    29    1
    16     7    39    1
    17     8    35   ar
    18     8    42   ar
    19     8    44    1
    20     9    10    1
    21     9    11    1
    22    10    13    1
    23    10    16    1
    24    10    17    1
    25    11    18    1
    26    11    50    1
    27    12    13    1
    28    12    14    1
    29    12    15    1
    30    12    51    1
    31    13    52    1
    32    13    53    1
    33    14    30    1
    34    15    21    1
    35    15    24    1
    36    15    54    1
    37    16    22    1
    38    16    55    1
    39    16    56    1
    40    17    23   ar
    41    17    31   ar
    42    18    19    1
    43    18    57    1
    44    18    58    1
    45    19    20    1
    46    19    27    1
    47    19    59    1
    48    20    33    1
    49    20    60    1
    50    21    25    1
    51    21    28    1
    52    21    61    1
    53    22    62    1
    54    22    63    1
    55    23    34   ar
    56    24    29    1
    57    24    64    1
    58    24    65    1
    59    25    32    1
    60    25    66    1
    61    26    27    1
    62    26    67    1
    63    26    68    1
    64    27    37    2
    65    28    69    1
    66    28    70    1
    67    29    35    1
    68    29    71    1
    69    30    72    1
    70    30    73    1
    71    30    74    1
    72    31    38   ar
    73    31    75    1
    74    32    36    1
    75    32    76    1
    76    32    77    1
    77    34    40   ar
    78    34    78    1
    79    35    36   ar
    80    36    41   ar
    81    37    43    1
    82    37    79    1
    83    38    40   ar
    84    38    80    1
    85    39    81    1
    86    39    82    1
    87    39    83    1
    88    40    84    1
    89    41    42   ar
    90    41    45   ar
    91    42    46   ar
    92    43    85    1
    93    43    86    1
    94    43    87    1
    95    44    88    1
    96    44    89    1
    97    44    90    1
    98    45    48   ar
    99    45    91    1
   100    46    49   ar
   101    46    92    1
   102    47    93    1
   103    47    94    1
   104    47    95    1
   105    48    49   ar
   106    48    96    1
   107    49    97    1
