@<TRIPOS>MOLECULE
IMPHY008897
 52 55 0 0 0
SMALL
GASTEIGER

@<TRIPOS>ATOM
      1 O           6.0427   -2.0357    0.0000 O.3     1  UNL1       -0.3313
      2 O           7.7748   -2.0357    0.0000 O.3     1  UNL1       -0.4572
      3 O           6.0427   -5.0357    0.0000 O.3     1  UNL1       -0.3864
      4 O           4.3107   -4.0357    0.0000 O.3     1  UNL1       -0.3865
      5 O           7.7748   -4.0357    0.0000 O.3     1  UNL1       -0.3829
      6 O           3.4446   -2.5357    0.0000 O.3     1  UNL1       -0.3924
      7 O           6.0427    1.9643    0.0000 O.2     1  UNL1       -0.4544
      8 O           9.5068   -1.0357    0.0000 O.3     1  UNL1       -0.5033
      9 O           3.4446    0.4643    0.0000 O.2     1  UNL1       -0.2869
     10 O           2.5405    1.9612    0.0000 O.3     1  UNL1       -0.5058
     11 O           4.2986    5.0336    0.0000 O.3     1  UNL1       -0.5065
     12 C           6.0427   -4.0357    0.0000 C.3     1  UNL1        0.1152
     13 C           5.1767   -3.5357    0.0000 C.3     1  UNL1        0.1120
     14 C           6.9088   -3.5357    0.0000 C.3     1  UNL1        0.1454
     15 C           5.1767   -2.5357    0.0000 C.3     1  UNL1        0.1140
     16 C           6.9088   -2.5357    0.0000 C.3     1  UNL1        0.2310
     17 C           4.3107   -2.0357    0.0000 C.3     1  UNL1        0.0731
     18 C           7.7748   -1.0357    0.0000 C.ar    1  UNL1        0.1658
     19 C           6.9088   -0.5357    0.0000 C.ar    1  UNL1       -0.0055
     20 C           8.6408   -0.5357    0.0000 C.ar    1  UNL1        0.1586
     21 C           6.9088    0.4643    0.0000 C.ar    1  UNL1        0.0211
     22 C           8.6408    0.4643    0.0000 C.ar    1  UNL1       -0.0159
     23 C           7.7748    0.9643    0.0000 C.ar    1  UNL1       -0.0474
     24 C           6.0427    0.9643    0.0000 C.ar    1  UNL1        0.1393
     25 C           5.1767    0.4643    0.0000 C.ar    1  UNL1        0.0288
     26 C           4.3107    1.9643    0.0000 C.ar    1  UNL1        0.1055
     27 C           5.1767    2.4643    0.0000 C.ar    1  UNL1        0.1462
     28 C           4.3107    0.9643    0.0000 C.ar    1  UNL1        0.1966
     29 C           3.4007    2.4712    0.0000 C.ar    1  UNL1        0.1347
     30 C           5.1928    3.5058    0.0000 C.ar    1  UNL1        0.0231
     31 C           4.2947    4.0336    0.0000 C.ar    1  UNL1        0.1239
     32 C           3.3926    3.5128    0.0000 C.ar    1  UNL1        0.0223
     33 H           5.5058   -4.3457    0.0000 H       1  UNL1        0.0648
     34 H           5.1767   -4.1557    0.0000 H       1  UNL1        0.0647
     35 H           6.9088   -4.1557    0.0000 H       1  UNL1        0.0683
     36 H           5.1767   -1.9157    0.0000 H       1  UNL1        0.0647
     37 H           6.9088   -1.9157    0.0000 H       1  UNL1        0.1084
     38 H           4.7092   -1.5607    0.0000 H       1  UNL1        0.0584
     39 H           3.9121   -1.5607    0.0000 H       1  UNL1        0.0584
     40 H           6.5797   -5.3457    0.0000 H       1  UNL1        0.2100
     41 H           4.3107   -4.6557    0.0000 H       1  UNL1        0.2100
     42 H           8.3117   -3.7257    0.0000 H       1  UNL1        0.2102
     43 H           2.9077   -2.2257    0.0000 H       1  UNL1        0.2095
     44 H           6.3718   -0.8457    0.0000 H       1  UNL1        0.0662
     45 H           9.1777    0.7743    0.0000 H       1  UNL1        0.0655
     46 H           7.7748    1.5843    0.0000 H       1  UNL1        0.0626
     47 H           5.1767   -0.1557    0.0000 H       1  UNL1        0.0693
     48 H          10.0438   -0.7257    0.0000 H       1  UNL1        0.2923
     49 H           5.7332    3.8096    0.0000 H       1  UNL1        0.0691
     50 H           2.8545    3.8207    0.0000 H       1  UNL1        0.0691
     51 H           2.0000    2.2650    0.0000 H       1  UNL1        0.2922
     52 H           3.7628    5.3457    0.0000 H       1  UNL1        0.2921
@<TRIPOS>BOND
     1     1    15    1
     2     1    16    1
     3    16     2    1
     4     2    18    1
     5    12     3    1
     6     3    40    1
     7    13     4    1
     8     4    41    1
     9     5    14    1
    10     5    42    1
    11     6    17    1
    12     6    43    1
    13     7    24   ar
    14     7    27   ar
    15     8    20    1
    16     8    48    1
    17     9    28    2
    18    10    29    1
    19    10    51    1
    20    11    31    1
    21    11    52    1
    22    12    13    1
    23    12    14    1
    24    12    33    1
    25    13    15    1
    26    13    34    1
    27    14    16    1
    28    14    35    1
    29    15    17    1
    30    15    36    1
    31    16    37    1
    32    17    38    1
    33    17    39    1
    34    18    19   ar
    35    18    20   ar
    36    19    21   ar
    37    19    44    1
    38    20    22   ar
    39    21    23   ar
    40    21    24    1
    41    22    23   ar
    42    22    45    1
    43    23    46    1
    44    24    25   ar
    45    25    28   ar
    46    25    47    1
    47    26    27   ar
    48    26    28   ar
    49    26    29   ar
    50    27    30   ar
    51    29    32   ar
    52    30    31   ar
    53    30    49    1
    54    31    32   ar
    55    32    50    1
