@<TRIPOS>MOLECULE
IMPHY010528
 52 55 0 0 0
SMALL
GASTEIGER

@<TRIPOS>ATOM
      1 O           9.2080   -2.0013    0.0000 O.3     1  UNL1       -0.3942
      2 O           7.5587   -2.5301    0.0000 O.3     1  UNL1       -0.4677
      3 O           6.2760   -1.3662    0.0000 O.2     1  UNL1       -0.2505
      4 N           6.9654    2.0780    0.0000 N.3     1  UNL1       -0.2931
      5 N           4.5124    0.9605    0.0000 N.ar    1  UNL1       -0.3564
      6 C           7.6200    0.1149    0.0000 C.3     1  UNL1       -0.0168
      7 C           6.2962    1.3348    0.0000 C.3     1  UNL1        0.0512
      8 C           6.6028    0.3393    0.0000 C.3     1  UNL1       -0.0276
      9 C           8.3170    0.8890    0.0000 C.3     1  UNL1       -0.0067
     10 C           7.9875    1.8771    0.0000 C.3     1  UNL1        0.0061
     11 C           5.3181    1.5427    0.0000 C.ar    1  UNL1        0.0376
     12 C           7.9253   -0.8373    0.0000 C.3     1  UNL1        0.0828
     13 C           6.6564    3.0290    0.0000 C.3     1  UNL1        0.0036
     14 C           5.0091    2.4938    0.0000 C.ar    1  UNL1       -0.0164
     15 C           5.6782    3.2369    0.0000 C.3     1  UNL1       -0.0125
     16 C           9.2959    0.6848    0.0000 C.2     1  UNL1       -0.0865
     17 C           4.0150    2.4912    0.0000 C.ar    1  UNL1        0.0032
     18 C           8.9027   -1.0490    0.0000 C.3     1  UNL1        0.0574
     19 C           3.7086    1.5455    0.0000 C.ar    1  UNL1        0.0470
     20 C           7.2533   -1.5779    0.0000 C.2     1  UNL1        0.3124
     21 C           3.3334    3.2707    0.0000 C.ar    1  UNL1       -0.0523
     22 C           9.9622    1.4306    0.0000 C.2     1  UNL1       -0.1023
     23 C           2.6994    1.3138    0.0000 C.ar    1  UNL1       -0.0378
     24 C           2.3191    3.0624    0.0000 C.ar    1  UNL1       -0.0611
     25 C           2.0000    2.0773    0.0000 C.ar    1  UNL1       -0.0598
     26 C           6.8867   -3.2707    0.0000 C.3     1  UNL1        0.0817
     27 H           7.0476   -0.5135    0.0000 H       1  UNL1        0.0316
     28 H           5.7226    0.7075    0.0000 H       1  UNL1        0.0527
     29 H           5.9878    0.2609    0.0000 H       1  UNL1        0.0287
     30 H           6.5748   -0.2800    0.0000 H       1  UNL1        0.0287
     31 H           8.5097    0.2997    0.0000 H       1  UNL1        0.0358
     32 H           8.6005    1.9697    0.0000 H       1  UNL1        0.0432
     33 H           8.0011    2.4970    0.0000 H       1  UNL1        0.0432
     34 H           8.1146   -1.4277    0.0000 H       1  UNL1        0.0439
     35 H           7.2703    3.1153    0.0000 H       1  UNL1        0.0430
     36 H           6.6780    3.6486    0.0000 H       1  UNL1        0.0430
     37 H           5.9105    3.8118    0.0000 H       1  UNL1        0.0326
     38 H           5.1524    3.5655    0.0000 H       1  UNL1        0.0326
     39 H           9.4898    0.0959    0.0000 H       1  UNL1        0.0570
     40 H           4.5113    0.3405    0.0000 H       1  UNL1        0.1656
     41 H           9.5170   -0.9651    0.0000 H       1  UNL1        0.0565
     42 H           8.9267   -0.4295    0.0000 H       1  UNL1        0.0565
     43 H           3.5313    3.8583    0.0000 H       1  UNL1        0.0624
     44 H          10.5691    1.3040    0.0000 H       1  UNL1        0.0532
     45 H           9.7683    2.0195    0.0000 H       1  UNL1        0.0532
     46 H           2.5152    0.7218    0.0000 H       1  UNL1        0.0638
     47 H           9.8140   -2.1325    0.0000 H       1  UNL1        0.2094
     48 H           1.9056    3.5243    0.0000 H       1  UNL1        0.0618
     49 H           1.3942    1.9455    0.0000 H       1  UNL1        0.0618
     50 H           6.4276   -2.8541    0.0000 H       1  UNL1        0.0661
     51 H           6.4701   -3.7298    0.0000 H       1  UNL1        0.0661
     52 H           7.3458   -3.6873    0.0000 H       1  UNL1        0.0661
@<TRIPOS>BOND
     1     1    18    1
     2     1    47    1
     3     2    20    1
     4     2    26    1
     5     3    20    2
     6     4     7    1
     7     4    10    1
     8     4    13    1
     9     5    11   ar
    10     5    19   ar
    11     5    40    1
    12     6     8    1
    13     6     9    1
    14     6    12    1
    15     6    27    1
    16     7     8    1
    17     7    11    1
    18     7    28    1
    19     8    29    1
    20     8    30    1
    21     9    10    1
    22     9    16    1
    23     9    31    1
    24    10    32    1
    25    10    33    1
    26    11    14   ar
    27    12    18    1
    28    12    20    1
    29    12    34    1
    30    13    15    1
    31    13    35    1
    32    13    36    1
    33    14    15    1
    34    14    17   ar
    35    15    37    1
    36    15    38    1
    37    16    22    2
    38    16    39    1
    39    17    19   ar
    40    17    21   ar
    41    18    41    1
    42    18    42    1
    43    19    23   ar
    44    21    24   ar
    45    21    43    1
    46    22    44    1
    47    22    45    1
    48    23    25   ar
    49    23    46    1
    50    24    25   ar
    51    24    48    1
    52    25    49    1
    53    26    50    1
    54    26    51    1
    55    26    52    1
