@<TRIPOS>MOLECULE
IMPHY002069
 23 22 0 0 0
SMALL
GASTEIGER

@<TRIPOS>ATOM
      1 O           5.4641   -0.2500    0.0000 O.3     1  UNL1       -0.4646
      2 O           6.3301    1.2500    0.0000 O.2     1  UNL1       -0.2512
      3 C           3.7320   -0.2500    0.0000 C.3     1  UNL1       -0.0098
      4 C           2.8660    0.2500    0.0000 C.3     1  UNL1       -0.0502
      5 C           4.5981    0.2500    0.0000 C.3     1  UNL1        0.0950
      6 C           3.7320   -1.2500    0.0000 C.3     1  UNL1       -0.0593
      7 C           2.0000   -0.2500    0.0000 C.3     1  UNL1       -0.0649
      8 C           6.3301    0.2500    0.0000 C.2     1  UNL1        0.3040
      9 C           7.1962   -0.2500    0.0000 C.3     1  UNL1        0.0332
     10 H           4.4682   -0.6750    0.0000 H       1  UNL1        0.0331
     11 H           3.2646    0.7249    0.0000 H       1  UNL1        0.0266
     12 H           2.4675    0.7249    0.0000 H       1  UNL1        0.0266
     13 H           4.9966    0.7249    0.0000 H       1  UNL1        0.0700
     14 H           4.1996    0.7249    0.0000 H       1  UNL1        0.0700
     15 H           3.1120   -1.2500    0.0000 H       1  UNL1        0.0233
     16 H           3.7320   -1.8700    0.0000 H       1  UNL1        0.0233
     17 H           4.3520   -1.2500    0.0000 H       1  UNL1        0.0233
     18 H           1.6900    0.2869    0.0000 H       1  UNL1        0.0230
     19 H           1.4631   -0.5600    0.0000 H       1  UNL1        0.0230
     20 H           2.3100   -0.7869    0.0000 H       1  UNL1        0.0230
     21 H           6.8862   -0.7869    0.0000 H       1  UNL1        0.0342
     22 H           7.7331   -0.5600    0.0000 H       1  UNL1        0.0342
     23 H           7.5062    0.2869    0.0000 H       1  UNL1        0.0342
@<TRIPOS>BOND
     1     1     5    1
     2     1     8    1
     3     2     8    2
     4     3     4    1
     5     3     5    1
     6     3     6    1
     7     3    10    1
     8     4     7    1
     9     4    11    1
    10     4    12    1
    11     5    13    1
    12     5    14    1
    13     6    15    1
    14     6    16    1
    15     6    17    1
    16     7    18    1
    17     7    19    1
    18     7    20    1
    19     8     9    1
    20     9    21    1
    21     9    22    1
    22     9    23    1
