@<TRIPOS>MOLECULE
IMPHY009572
 54 55 0 0 0
SMALL
GASTEIGER

@<TRIPOS>ATOM
      1 O           6.5010   -1.2606    0.0000 O.3     1  UNL1       -0.3746
      2 O           7.3671   -0.7606    0.0000 O.3     1  UNL1       -0.3746
      3 O           4.2690   -0.3946    0.0000 O.3     1  UNL1       -0.4785
      4 O           8.5991    0.1054    0.0000 O.3     1  UNL1       -0.4785
      5 O           5.1350    1.1054    0.0000 O.2     1  UNL1       -0.2476
      6 O           8.2331    1.4715    0.0000 O.2     1  UNL1       -0.2476
      7 O           2.5369   -5.3946    0.0000 O.3     1  UNL1       -0.5033
      8 O           9.3671    4.4356    0.0000 O.3     1  UNL1       -0.5033
      9 O           4.2690   -6.3946    0.0000 O.3     1  UNL1       -0.5033
     10 O           8.3671    6.1676    0.0000 O.3     1  UNL1       -0.5033
     11 C           6.0010   -0.3946    0.0000 C.3     1  UNL1        0.2050
     12 C           6.8671    0.1054    0.0000 C.3     1  UNL1        0.2050
     13 C           6.3671    0.9715    0.0000 C.3     1  UNL1        0.0084
     14 C           5.1350   -0.8946    0.0000 C.3     1  UNL1        0.0084
     15 C           5.1350    0.1054    0.0000 C.2     1  UNL1        0.3406
     16 C           7.7331    0.6054    0.0000 C.2     1  UNL1        0.3406
     17 C           6.8671    1.8375    0.0000 C.2     1  UNL1       -0.0801
     18 C           5.1350   -1.8946    0.0000 C.2     1  UNL1       -0.0801
     19 C           4.2690   -2.3946    0.0000 C.2     1  UNL1       -0.0583
     20 C           6.3671    2.7035    0.0000 C.2     1  UNL1       -0.0583
     21 C           4.2690   -3.3946    0.0000 C.ar    1  UNL1       -0.0216
     22 C           6.8671    3.5695    0.0000 C.ar    1  UNL1       -0.0216
     23 C           3.4030   -3.8946    0.0000 C.ar    1  UNL1       -0.0094
     24 C           7.8671    3.5695    0.0000 C.ar    1  UNL1       -0.0094
     25 C           5.1350   -3.8946    0.0000 C.ar    1  UNL1       -0.0509
     26 C           6.3671    4.4356    0.0000 C.ar    1  UNL1       -0.0509
     27 C           3.4030   -4.8946    0.0000 C.ar    1  UNL1        0.1588
     28 C           8.3671    4.4356    0.0000 C.ar    1  UNL1        0.1588
     29 C           5.1350   -4.8946    0.0000 C.ar    1  UNL1       -0.0160
     30 C           6.8671    5.3016    0.0000 C.ar    1  UNL1       -0.0160
     31 C           4.2690   -5.3946    0.0000 C.ar    1  UNL1        0.1582
     32 C           7.8671    5.3016    0.0000 C.ar    1  UNL1        0.1582
     33 H           5.8921    1.3700    0.0000 H       1  UNL1        0.0342
     34 H           5.8921    0.5729    0.0000 H       1  UNL1        0.0342
     35 H           4.9230   -0.3119    0.0000 H       1  UNL1        0.0342
     36 H           4.5244   -1.0022    0.0000 H       1  UNL1        0.0342
     37 H           7.4040    2.1475    0.0000 H       1  UNL1        0.0573
     38 H           5.6720   -2.2046    0.0000 H       1  UNL1        0.0573
     39 H           6.1910   -1.7975    0.0000 H       1  UNL1        0.2110
     40 H           7.9871   -0.7606    0.0000 H       1  UNL1        0.2110
     41 H           3.7320   -2.0846    0.0000 H       1  UNL1        0.0620
     42 H           5.7471    2.7035    0.0000 H       1  UNL1        0.0620
     43 H           3.7320   -0.0846    0.0000 H       1  UNL1        0.2951
     44 H           9.1360    0.4154    0.0000 H       1  UNL1        0.2951
     45 H           2.8660   -3.5846    0.0000 H       1  UNL1        0.0661
     46 H           8.1771    3.0326    0.0000 H       1  UNL1        0.0661
     47 H           5.6720   -3.5846    0.0000 H       1  UNL1        0.0625
     48 H           5.7471    4.4356    0.0000 H       1  UNL1        0.0625
     49 H           5.6720   -5.2046    0.0000 H       1  UNL1        0.0655
     50 H           6.5571    5.8385    0.0000 H       1  UNL1        0.0655
     51 H           2.0000   -5.0846    0.0000 H       1  UNL1        0.2923
     52 H           9.6771    4.9725    0.0000 H       1  UNL1        0.2923
     53 H           4.8059   -6.7046    0.0000 H       1  UNL1        0.2923
     54 H           8.0571    6.7046    0.0000 H       1  UNL1        0.2923
@<TRIPOS>BOND
     1     1    11    1
     2     1    39    1
     3     2    12    1
     4     2    40    1
     5     3    15    1
     6     3    43    1
     7     4    16    1
     8     4    44    1
     9     5    15    2
    10     6    16    2
    11     7    27    1
    12     7    51    1
    13     8    28    1
    14     8    52    1
    15     9    31    1
    16     9    53    1
    17    10    32    1
    18    10    54    1
    19    11    12    1
    20    11    14    1
    21    11    15    1
    22    12    13    1
    23    12    16    1
    24    13    17    1
    25    13    33    1
    26    13    34    1
    27    14    18    1
    28    14    35    1
    29    14    36    1
    30    17    20    2
    31    17    37    1
    32    18    19    2
    33    18    38    1
    34    19    21    1
    35    19    41    1
    36    20    22    1
    37    20    42    1
    38    21    23   ar
    39    21    25   ar
    40    22    24   ar
    41    22    26   ar
    42    23    27   ar
    43    23    45    1
    44    24    28   ar
    45    24    46    1
    46    25    29   ar
    47    25    47    1
    48    26    30   ar
    49    26    48    1
    50    27    31   ar
    51    28    32   ar
    52    29    31   ar
    53    29    49    1
    54    30    32   ar
    55    30    50    1
