@<TRIPOS>MOLECULE
IMPHY013848
 30 30 0 0 0
SMALL
GASTEIGER

@<TRIPOS>ATOM
      1 O           4.7690    2.1830    0.0000 O.3     1  UNL1       -0.3863
      2 O           2.5369    1.3170    0.0000 O.3     1  UNL1       -0.3889
      3 C           4.2690    1.3170    0.0000 C.3     1  UNL1        0.0891
      4 C           4.2690   -0.6830    0.0000 C.3     1  UNL1       -0.0179
      5 C           3.4030    0.8170    0.0000 C.3     1  UNL1        0.0841
      6 C           5.1350    0.8170    0.0000 C.3     1  UNL1       -0.0213
      7 C           3.4030   -0.1830    0.0000 C.3     1  UNL1       -0.0177
      8 C           5.1350   -0.1830    0.0000 C.3     1  UNL1       -0.0438
      9 C           3.7690    2.1830    0.0000 C.3     1  UNL1       -0.0336
     10 C           4.2690   -1.6830    0.0000 C.2     1  UNL1       -0.0765
     11 C           5.1350   -2.1830    0.0000 C.3     1  UNL1       -0.0438
     12 C           3.4030   -2.1830    0.0000 C.2     1  UNL1       -0.0994
     13 H           4.8059   -0.9930    0.0000 H       1  UNL1        0.0346
     14 H           3.4030    1.4370    0.0000 H       1  UNL1        0.0622
     15 H           5.7456    0.7093    0.0000 H       1  UNL1        0.0294
     16 H           5.3471    1.3996    0.0000 H       1  UNL1        0.0294
     17 H           2.7924   -0.0754    0.0000 H       1  UNL1        0.0297
     18 H           3.1909   -0.7656    0.0000 H       1  UNL1        0.0297
     19 H           5.3471   -0.7656    0.0000 H       1  UNL1        0.0272
     20 H           5.7456   -0.0754    0.0000 H       1  UNL1        0.0272
     21 H           4.3059    2.4930    0.0000 H       1  UNL1        0.0258
     22 H           3.4590    2.7200    0.0000 H       1  UNL1        0.0258
     23 H           3.2320    1.8730    0.0000 H       1  UNL1        0.0258
     24 H           5.3890    2.1830    0.0000 H       1  UNL1        0.2103
     25 H           2.0000    1.0070    0.0000 H       1  UNL1        0.2099
     26 H           4.8250   -2.7200    0.0000 H       1  UNL1        0.0274
     27 H           5.6720   -2.4930    0.0000 H       1  UNL1        0.0274
     28 H           5.4450   -1.6461    0.0000 H       1  UNL1        0.0274
     29 H           2.8660   -1.8730    0.0000 H       1  UNL1        0.0534
     30 H           3.4030   -2.8030    0.0000 H       1  UNL1        0.0534
@<TRIPOS>BOND
     1     1     3    1
     2     1    24    1
     3     2     5    1
     4     2    25    1
     5     3     5    1
     6     3     6    1
     7     3     9    1
     8     4     7    1
     9     4     8    1
    10     4    10    1
    11     4    13    1
    12     5     7    1
    13     5    14    1
    14     6     8    1
    15     6    15    1
    16     6    16    1
    17     7    17    1
    18     7    18    1
    19     8    19    1
    20     8    20    1
    21     9    21    1
    22     9    22    1
    23     9    23    1
    24    10    11    1
    25    10    12    2
    26    11    26    1
    27    11    27    1
    28    11    28    1
    29    12    29    1
    30    12    30    1
