@<TRIPOS>MOLECULE
IMPHY013516
 56 58 0 0 0
SMALL
GASTEIGER

@<TRIPOS>ATOM
      1 O           3.9061   -0.8069    0.0000 O.3     1  UNL1       -0.4824
      2 O           2.1359    1.2519    0.0000 O.3     1  UNL1       -0.3875
      3 O           7.4260   -0.8069    0.0000 O.2     1  UNL1       -0.4212
      4 O           5.6660    2.2278    0.0000 O.3     1  UNL1       -0.5057
      5 O           4.8000   -2.2722    0.0000 O.2     1  UNL1       -0.2918
      6 O           9.1962   -0.7964    0.0000 O.2     1  UNL1       -0.2452
      7 C           3.0000   -0.2931    0.0000 C.3     1  UNL1        0.1310
      8 C           3.0000    0.7486    0.0000 C.3     1  UNL1        0.0984
      9 C           3.9061    1.2624    0.0000 C.3     1  UNL1        0.0092
     10 C           4.8000    0.7277    0.0000 C.ar    1  UNL1        0.0397
     11 C           4.8000   -0.2723    0.0000 C.ar    1  UNL1        0.1422
     12 C           2.0000   -0.2969    0.0000 C.3     1  UNL1       -0.0227
     13 C           2.5033   -1.1610    0.0000 C.3     1  UNL1       -0.0227
     14 C           5.6660   -0.7723    0.0000 C.ar    1  UNL1        0.1024
     15 C           5.6660    1.2277    0.0000 C.ar    1  UNL1        0.1345
     16 C           6.5320    0.7277    0.0000 C.ar    1  UNL1        0.0633
     17 C           6.5320   -0.2723    0.0000 C.ar    1  UNL1        0.1568
     18 C           7.4260    1.2624    0.0000 C.ar    1  UNL1       -0.0264
     19 C           5.6660   -1.7722    0.0000 C.2     1  UNL1        0.1705
     20 C           6.5320   -2.2722    0.0000 C.3     1  UNL1        0.0130
     21 C           7.4144    2.2623    0.0000 C.3     1  UNL1       -0.0269
     22 C           6.5320   -3.2722    0.0000 C.3     1  UNL1       -0.0397
     23 C           8.3321    0.7486    0.0000 C.ar    1  UNL1        0.0269
     24 C           8.2746    2.7723    0.0000 C.3     1  UNL1       -0.0519
     25 C           8.3321   -0.2931    0.0000 C.ar    1  UNL1        0.3375
     26 C           7.3981   -3.7722    0.0000 C.3     1  UNL1       -0.0623
     27 C           5.6660   -3.7722    0.0000 C.3     1  UNL1       -0.0623
     28 C           8.2630    3.7722    0.0000 C.3     1  UNL1       -0.0650
     29 H           3.0036    1.3686    0.0000 H       1  UNL1        0.0636
     30 H           4.3107    1.7322    0.0000 H       1  UNL1        0.0342
     31 H           3.5124    1.7414    0.0000 H       1  UNL1        0.0342
     32 H           1.9976    0.3231    0.0000 H       1  UNL1        0.0269
     33 H           1.3800   -0.2993    0.0000 H       1  UNL1        0.0269
     34 H           2.0024   -0.9169    0.0000 H       1  UNL1        0.0269
     35 H           1.9652   -0.8531    0.0000 H       1  UNL1        0.0269
     36 H           2.1954   -1.6991    0.0000 H       1  UNL1        0.0269
     37 H           3.0415   -1.4689    0.0000 H       1  UNL1        0.0269
     38 H           2.1383    1.8719    0.0000 H       1  UNL1        0.2100
     39 H           7.1426   -2.3799    0.0000 H       1  UNL1        0.0348
     40 H           6.7441   -1.6896    0.0000 H       1  UNL1        0.0348
     41 H           7.1957    2.8425    0.0000 H       1  UNL1        0.0313
     42 H           6.8051    2.1476    0.0000 H       1  UNL1        0.0313
     43 H           6.5320   -3.8922    0.0000 H       1  UNL1        0.0300
     44 H           8.8678    1.0606    0.0000 H       1  UNL1        0.0692
     45 H           5.1291    2.5378    0.0000 H       1  UNL1        0.2922
     46 H           8.4934    2.1922    0.0000 H       1  UNL1        0.0266
     47 H           8.8839    2.8870    0.0000 H       1  UNL1        0.0266
     48 H           7.0881   -4.3092    0.0000 H       1  UNL1        0.0232
     49 H           7.9350   -4.0822    0.0000 H       1  UNL1        0.0232
     50 H           7.7081   -3.2353    0.0000 H       1  UNL1        0.0232
     51 H           5.3560   -3.2353    0.0000 H       1  UNL1        0.0232
     52 H           5.1291   -4.0822    0.0000 H       1  UNL1        0.0232
     53 H           5.9760   -4.3092    0.0000 H       1  UNL1        0.0232
     54 H           8.8830    3.7794    0.0000 H       1  UNL1        0.0230
     55 H           8.2559    4.3922    0.0000 H       1  UNL1        0.0230
     56 H           7.6431    3.7651    0.0000 H       1  UNL1        0.0230
@<TRIPOS>BOND
     1     1     7    1
     2     1    11    1
     3     2     8    1
     4     2    38    1
     5     3    17   ar
     6     3    25   ar
     7     4    15    1
     8     4    45    1
     9     5    19    2
    10     6    25    2
    11     7     8    1
    12     7    12    1
    13     7    13    1
    14     8     9    1
    15     8    29    1
    16     9    10    1
    17     9    30    1
    18     9    31    1
    19    10    11   ar
    20    10    15   ar
    21    11    14   ar
    22    12    32    1
    23    12    33    1
    24    12    34    1
    25    13    35    1
    26    13    36    1
    27    13    37    1
    28    14    17   ar
    29    14    19    1
    30    15    16   ar
    31    16    17   ar
    32    16    18   ar
    33    18    21    1
    34    18    23   ar
    35    19    20    1
    36    20    22    1
    37    20    39    1
    38    20    40    1
    39    21    24    1
    40    21    41    1
    41    21    42    1
    42    22    26    1
    43    22    27    1
    44    22    43    1
    45    23    25   ar
    46    23    44    1
    47    24    28    1
    48    24    46    1
    49    24    47    1
    50    26    48    1
    51    26    49    1
    52    26    50    1
    53    27    51    1
    54    27    52    1
    55    27    53    1
    56    28    54    1
    57    28    55    1
    58    28    56    1
