@<TRIPOS>MOLECULE
IMPHY017824
 40 41 0 0 0
SMALL
GASTEIGER

@<TRIPOS>ATOM
      1 O           2.8660    2.3010    0.0000 O.3     1  UNL1       -0.3912
      2 C           3.7320    0.8010    0.0000 C.3     1  UNL1        0.0009
      3 C           3.7320   -0.1990    0.0000 C.3     1  UNL1       -0.0062
      4 C           4.6783   -0.5037    0.0000 C.3     1  UNL1       -0.0156
      5 C           4.6783    1.1057    0.0000 C.3     1  UNL1       -0.0442
      6 C           2.8660    1.3010    0.0000 C.3     1  UNL1        0.0614
      7 C           5.2619    0.3010    0.0000 C.3     1  UNL1       -0.0456
      8 C           2.8660   -0.6990    0.0000 C.2     1  UNL1       -0.0723
      9 C           2.0000    0.8010    0.0000 C.3     1  UNL1       -0.0226
     10 C           3.7320    1.8010    0.0000 C.3     1  UNL1       -0.0566
     11 C           2.0000   -0.1990    0.0000 C.3     1  UNL1       -0.0293
     12 C           4.9889   -1.4543    0.0000 C.2     1  UNL1       -0.0816
     13 C           2.8660   -1.6990    0.0000 C.2     1  UNL1       -0.0991
     14 C           5.9674   -1.6605    0.0000 C.2     1  UNL1       -0.0793
     15 C           6.2781   -2.6110    0.0000 C.3     1  UNL1       -0.0440
     16 C           6.6353   -0.9162    0.0000 C.3     1  UNL1       -0.0440
     17 H           3.7977   -0.8155    0.0000 H       1  UNL1        0.0357
     18 H           5.2908   -0.5999    0.0000 H       1  UNL1        0.0349
     19 H           5.2156    1.4150    0.0000 H       1  UNL1        0.0272
     20 H           4.4272    1.6726    0.0000 H       1  UNL1        0.0272
     21 H           2.3291    1.6110    0.0000 H       1  UNL1        0.0599
     22 H           5.7227   -0.1137    0.0000 H       1  UNL1        0.0271
     23 H           5.7227    0.7157    0.0000 H       1  UNL1        0.0271
     24 H           1.7880    1.3836    0.0000 H       1  UNL1        0.0293
     25 H           1.3894    0.6933    0.0000 H       1  UNL1        0.0293
     26 H           4.3520    1.8010    0.0000 H       1  UNL1        0.0236
     27 H           3.7320    2.4210    0.0000 H       1  UNL1        0.0236
     28 H           3.1120    1.8010    0.0000 H       1  UNL1        0.0236
     29 H           1.3894   -0.0913    0.0000 H       1  UNL1        0.0311
     30 H           1.7880   -0.7816    0.0000 H       1  UNL1        0.0311
     31 H           4.5749   -1.9157    0.0000 H       1  UNL1        0.0574
     32 H           2.3291    2.6110    0.0000 H       1  UNL1        0.2098
     33 H           2.3291   -2.0090    0.0000 H       1  UNL1        0.0534
     34 H           3.4030   -2.0090    0.0000 H       1  UNL1        0.0534
     35 H           5.6888   -2.8036    0.0000 H       1  UNL1        0.0274
     36 H           6.4707   -3.2003    0.0000 H       1  UNL1        0.0274
     37 H           6.8674   -2.4184    0.0000 H       1  UNL1        0.0274
     38 H           7.0968   -1.3302    0.0000 H       1  UNL1        0.0274
     39 H           7.0494   -0.4547    0.0000 H       1  UNL1        0.0274
     40 H           6.1738   -0.5021    0.0000 H       1  UNL1        0.0274
@<TRIPOS>BOND
     1     6     1    1
     2     1    32    1
     3     2     3    1
     4     2     5    1
     5     2     6    1
     6     2    10    1
     7     3     4    1
     8     3     8    1
     9     3    17    1
    10     4     7    1
    11     4    12    1
    12     4    18    1
    13     5     7    1
    14     5    19    1
    15     5    20    1
    16     6     9    1
    17     6    21    1
    18     7    22    1
    19     7    23    1
    20     8    11    1
    21     8    13    2
    22     9    11    1
    23     9    24    1
    24     9    25    1
    25    10    26    1
    26    10    27    1
    27    10    28    1
    28    11    29    1
    29    11    30    1
    30    12    14    2
    31    12    31    1
    32    13    33    1
    33    13    34    1
    34    14    15    1
    35    14    16    1
    36    15    35    1
    37    15    36    1
    38    15    37    1
    39    16    38    1
    40    16    39    1
    41    16    40    1
