@<TRIPOS>MOLECULE
IMPHY013660
 45 47 0 0 0
SMALL
GASTEIGER

@<TRIPOS>ATOM
      1 O           6.3580   -0.7143    0.0000 O.2     1  UNL1       -0.4469
      2 O           4.5981    2.3204    0.0000 O.3     1  UNL1       -0.4905
      3 O           8.1282    1.3446    0.0000 O.3     1  UNL1       -0.4883
      4 O           2.8660    1.3204    0.0000 O.3     1  UNL1       -0.4884
      5 O           2.8660   -0.6796    0.0000 O.3     1  UNL1       -0.4883
      6 O           4.5981   -1.6796    0.0000 O.3     1  UNL1       -0.5008
      7 O           6.3465    2.3550    0.0000 O.2     1  UNL1       -0.2830
      8 O           7.2564   -2.2004    0.0000 O.3     1  UNL1       -0.5061
      9 C           5.4641    0.8204    0.0000 C.ar    1  UNL1        0.1167
     10 C           5.4641   -0.1796    0.0000 C.ar    1  UNL1        0.1882
     11 C           4.5981    1.3204    0.0000 C.ar    1  UNL1        0.1799
     12 C           7.2641   -0.2004    0.0000 C.ar    1  UNL1        0.1845
     13 C           6.3580    1.3551    0.0000 C.ar    1  UNL1        0.2383
     14 C           4.5981   -0.6796    0.0000 C.ar    1  UNL1        0.2064
     15 C           7.2641    0.8412    0.0000 C.ar    1  UNL1        0.2108
     16 C           3.7320    0.8204    0.0000 C.ar    1  UNL1        0.2082
     17 C           3.7320   -0.1796    0.0000 C.ar    1  UNL1        0.2108
     18 C           8.1282   -0.7038    0.0000 C.ar    1  UNL1        0.0624
     19 C           8.1244   -1.7037    0.0000 C.ar    1  UNL1        0.1276
     20 C           8.9962   -0.2071    0.0000 C.ar    1  UNL1       -0.0474
     21 C           8.9884   -2.2071    0.0000 C.ar    1  UNL1       -0.0195
     22 C           9.8602   -0.7104    0.0000 C.ar    1  UNL1       -0.0609
     23 C           9.8564   -1.7104    0.0000 C.ar    1  UNL1       -0.0583
     24 C           3.7320    2.8204    0.0000 C.3     1  UNL1        0.0790
     25 C           8.1244    2.3445    0.0000 C.3     1  UNL1        0.0791
     26 C           2.0000    0.8204    0.0000 C.3     1  UNL1        0.0791
     27 C           2.8660   -1.6796    0.0000 C.3     1  UNL1        0.0791
     28 H           8.9985    0.4129    0.0000 H       1  UNL1        0.0626
     29 H           8.9860   -2.8271    0.0000 H       1  UNL1        0.0654
     30 H          10.3984   -0.4025    0.0000 H       1  UNL1        0.0618
     31 H           4.0611   -1.9896    0.0000 H       1  UNL1        0.2924
     32 H          10.3921   -2.0225    0.0000 H       1  UNL1        0.0619
     33 H           4.0420    3.3573    0.0000 H       1  UNL1        0.0660
     34 H           3.1951    3.1304    0.0000 H       1  UNL1        0.0660
     35 H           3.4220    2.2835    0.0000 H       1  UNL1        0.0660
     36 H           8.7443    2.3469    0.0000 H       1  UNL1        0.0660
     37 H           8.1220    2.9645    0.0000 H       1  UNL1        0.0660
     38 H           7.5044    2.3422    0.0000 H       1  UNL1        0.0660
     39 H           1.6900    1.3573    0.0000 H       1  UNL1        0.0660
     40 H           1.4631    0.5104    0.0000 H       1  UNL1        0.0660
     41 H           2.3100    0.2835    0.0000 H       1  UNL1        0.0660
     42 H           2.2460   -1.6796    0.0000 H       1  UNL1        0.0660
     43 H           2.8660   -2.2996    0.0000 H       1  UNL1        0.0660
     44 H           3.4860   -1.6796    0.0000 H       1  UNL1        0.0660
     45 H           7.2540   -2.8204    0.0000 H       1  UNL1        0.2922
@<TRIPOS>BOND
     1     1    10   ar
     2     1    12   ar
     3     2    11    1
     4     2    24    1
     5     3    15    1
     6     3    25    1
     7     4    16    1
     8     4    26    1
     9     5    17    1
    10     5    27    1
    11     6    14    1
    12     6    31    1
    13     7    13    2
    14     8    19    1
    15     8    45    1
    16     9    10   ar
    17     9    11   ar
    18     9    13   ar
    19    10    14   ar
    20    11    16   ar
    21    12    15   ar
    22    12    18    1
    23    13    15   ar
    24    14    17   ar
    25    16    17   ar
    26    18    19   ar
    27    18    20   ar
    28    19    21   ar
    29    20    22   ar
    30    20    28    1
    31    21    23   ar
    32    21    29    1
    33    22    23   ar
    34    22    30    1
    35    23    32    1
    36    24    33    1
    37    24    34    1
    38    24    35    1
    39    25    36    1
    40    25    37    1
    41    25    38    1
    42    26    39    1
    43    26    40    1
    44    26    41    1
    45    27    42    1
    46    27    43    1
    47    27    44    1
