@<TRIPOS>MOLECULE
IMPHY016515
 57 60 0 0 0
SMALL
GASTEIGER

@<TRIPOS>ATOM
      1 O           2.3079   -1.0356    0.0000 O.3     1  UNL1       -0.3886
      2 O           9.0899    2.7715    0.0000 O.2     1  UNL1       -0.2968
      3 C           6.1010    0.5162    0.0000 C.3     1  UNL1       -0.0322
      4 C           5.1910    0.0094    0.0000 C.3     1  UNL1       -0.0260
      5 C           6.9670    0.0162    0.0000 C.3     1  UNL1       -0.0340
      6 C           7.8331    0.5162    0.0000 C.3     1  UNL1       -0.0255
      7 C           5.1830   -1.0322    0.0000 C.3     1  UNL1       -0.0328
      8 C           7.8331    1.5162    0.0000 C.3     1  UNL1        0.0293
      9 C           6.1010    1.5162    0.0000 C.3     1  UNL1       -0.0486
     10 C           6.9831   -1.0253    0.0000 C.3     1  UNL1       -0.0494
     11 C           6.0851   -1.5530    0.0000 C.3     1  UNL1       -0.0493
     12 C           4.2642    0.5735    0.0000 C.3     1  UNL1       -0.0445
     13 C           6.9670    2.0162    0.0000 C.3     1  UNL1       -0.0404
     14 C           4.2476   -1.5819    0.0000 C.3     1  UNL1       -0.0207
     15 C           8.7793    0.2115    0.0000 C.3     1  UNL1       -0.0424
     16 C           3.3079   -1.0394    0.0000 C.3     1  UNL1        0.0662
     17 C           3.3163    0.0455    0.0000 C.3     1  UNL1       -0.0235
     18 C           5.1987    1.0094    0.0000 C.3     1  UNL1       -0.0590
     19 C           8.7793    1.8210    0.0000 C.2     1  UNL1        0.1395
     20 C           9.3629    1.0162    0.0000 C.3     1  UNL1        0.0067
     21 C           7.8331    2.5162    0.0000 C.3     1  UNL1       -0.0526
     22 C           2.8046   -1.9035    0.0000 C.3     1  UNL1       -0.0268
     23 C           3.3012   -2.7715    0.0000 C.3     1  UNL1       -0.0627
     24 H           6.8371    0.9412    0.0000 H       1  UNL1        0.0309
     25 H           7.7064   -0.4031    0.0000 H       1  UNL1        0.0307
     26 H           7.9230   -0.3290    0.0000 H       1  UNL1        0.0313
     27 H           5.1862   -1.8822    0.0000 H       1  UNL1        0.0307
     28 H           5.8890    2.0988    0.0000 H       1  UNL1        0.0268
     29 H           5.4904    1.4086    0.0000 H       1  UNL1        0.0268
     30 H           7.2011   -1.6057    0.0000 H       1  UNL1        0.0268
     31 H           7.5922   -0.9098    0.0000 H       1  UNL1        0.0268
     32 H           5.6878   -2.0290    0.0000 H       1  UNL1        0.0268
     33 H           6.4860   -2.0259    0.0000 H       1  UNL1        0.0268
     34 H           4.6724    1.0401    0.0000 H       1  UNL1        0.0272
     35 H           3.8742    1.0555    0.0000 H       1  UNL1        0.0272
     36 H           7.3656    2.4912    0.0000 H       1  UNL1        0.0275
     37 H           6.5685    2.4912    0.0000 H       1  UNL1        0.0275
     38 H           3.8502   -2.0579    0.0000 H       1  UNL1        0.0296
     39 H           4.6485   -2.0548    0.0000 H       1  UNL1        0.0296
     40 H           8.5282   -0.3554    0.0000 H       1  UNL1        0.0272
     41 H           9.3167   -0.0977    0.0000 H       1  UNL1        0.0272
     42 H           3.1117    0.6308    0.0000 H       1  UNL1        0.0293
     43 H           2.7046   -0.0559    0.0000 H       1  UNL1        0.0293
     44 H           5.8187    1.0046    0.0000 H       1  UNL1        0.0235
     45 H           5.2035    1.6293    0.0000 H       1  UNL1        0.0235
     46 H           4.5787    1.0141    0.0000 H       1  UNL1        0.0235
     47 H           9.8238    0.6015    0.0000 H       1  UNL1        0.0342
     48 H           9.8238    1.4310    0.0000 H       1  UNL1        0.0342
     49 H           8.4531    2.5162    0.0000 H       1  UNL1        0.0239
     50 H           7.8331    3.1362    0.0000 H       1  UNL1        0.0239
     51 H           7.2131    2.5162    0.0000 H       1  UNL1        0.0239
     52 H           2.3312   -1.5032    0.0000 H       1  UNL1        0.0290
     53 H           2.3281   -2.3002    0.0000 H       1  UNL1        0.0290
     54 H           2.0000   -0.4975    0.0000 H       1  UNL1        0.2102
     55 H           2.7631   -3.0794    0.0000 H       1  UNL1        0.0231
     56 H           3.6092   -3.3096    0.0000 H       1  UNL1        0.0231
     57 H           3.8394   -2.4636    0.0000 H       1  UNL1        0.0231
@<TRIPOS>BOND
     1     1    16    1
     2     1    54    1
     3     2    19    2
     4     3     4    1
     5     3     5    1
     6     3     9    1
     7     3    24    1
     8     4     7    1
     9     4    12    1
    10     4    18    1
    11     5     6    1
    12     5    10    1
    13     5    25    1
    14     6     8    1
    15     6    15    1
    16     6    26    1
    17     7    11    1
    18     7    14    1
    19     7    27    1
    20     8    13    1
    21     8    19    1
    22     8    21    1
    23     9    13    1
    24     9    28    1
    25     9    29    1
    26    10    11    1
    27    10    30    1
    28    10    31    1
    29    11    32    1
    30    11    33    1
    31    12    17    1
    32    12    34    1
    33    12    35    1
    34    13    36    1
    35    13    37    1
    36    14    16    1
    37    14    38    1
    38    14    39    1
    39    15    20    1
    40    15    40    1
    41    15    41    1
    42    16    17    1
    43    16    22    1
    44    17    42    1
    45    17    43    1
    46    18    44    1
    47    18    45    1
    48    18    46    1
    49    19    20    1
    50    20    47    1
    51    20    48    1
    52    21    49    1
    53    21    50    1
    54    21    51    1
    55    22    23    1
    56    22    52    1
    57    22    53    1
    58    23    55    1
    59    23    56    1
    60    23    57    1
