@<TRIPOS>MOLECULE
IMPHY006704
 28 30 0 0 0
SMALL
GASTEIGER

@<TRIPOS>ATOM
      1 O           6.4783   -1.5597    0.0000 O.2     1  UNL1       -0.4449
      2 O           4.6660    1.2450    0.0000 O.3     1  UNL1       -0.4936
      3 O           2.9176    1.2796    0.0000 O.3     1  UNL1       -0.4943
      4 N           4.6660   -1.7550    0.0000 N.ar    1  UNL1       -0.2117
      5 C           3.8000   -0.2550    0.0000 C.ar    1  UNL1        0.0844
      6 C           4.6660    0.2450    0.0000 C.ar    1  UNL1        0.1451
      7 C           5.5321   -0.2550    0.0000 C.ar    1  UNL1        0.0821
      8 C           3.8000   -1.2550    0.0000 C.ar    1  UNL1        0.0819
      9 C           5.5321   -1.2550    0.0000 C.ar    1  UNL1        0.2311
     10 C           2.9061    0.2797    0.0000 C.ar    1  UNL1        0.1328
     11 C           2.9061   -1.7896    0.0000 C.ar    1  UNL1       -0.0353
     12 C           6.4783    0.0498    0.0000 C.ar    1  UNL1       -0.0109
     13 C           2.0000   -0.2341    0.0000 C.ar    1  UNL1       -0.0191
     14 C           2.0000   -1.2758    0.0000 C.ar    1  UNL1       -0.0563
     15 C           7.0619   -0.7550    0.0000 C.ar    1  UNL1        0.0952
     16 C           5.5321    1.7450    0.0000 C.3     1  UNL1        0.0788
     17 C           2.0574    1.7896    0.0000 C.3     1  UNL1        0.0788
     18 H           2.9132   -2.4096    0.0000 H       1  UNL1        0.0639
     19 H           6.6709    0.6391    0.0000 H       1  UNL1        0.0657
     20 H           1.4643    0.0779    0.0000 H       1  UNL1        0.0654
     21 H           1.4643   -1.5878    0.0000 H       1  UNL1        0.0619
     22 H           7.6819   -0.7550    0.0000 H       1  UNL1        0.1030
     23 H           5.8421    1.2081    0.0000 H       1  UNL1        0.0660
     24 H           6.0690    2.0550    0.0000 H       1  UNL1        0.0660
     25 H           5.2221    2.2820    0.0000 H       1  UNL1        0.0660
     26 H           2.3736    2.3229    0.0000 H       1  UNL1        0.0660
     27 H           1.5241    2.1058    0.0000 H       1  UNL1        0.0660
     28 H           1.7413    1.2563    0.0000 H       1  UNL1        0.0660
@<TRIPOS>BOND
     1     1     9   ar
     2     1    15   ar
     3     2     6    1
     4     2    16    1
     5     3    10    1
     6     3    17    1
     7     4     8   ar
     8     4     9   ar
     9     5     6   ar
    10     5     8   ar
    11     5    10   ar
    12     6     7   ar
    13     7     9   ar
    14     7    12   ar
    15     8    11   ar
    16    10    13   ar
    17    11    14   ar
    18    11    18    1
    19    12    15   ar
    20    12    19    1
    21    13    14   ar
    22    13    20    1
    23    14    21    1
    24    15    22    1
    25    16    23    1
    26    16    24    1
    27    16    25    1
    28    17    26    1
    29    17    27    1
    30    17    28    1
