@<TRIPOS>MOLECULE
IMPHY002452
 95 101 0 0 0
SMALL
GASTEIGER

@<TRIPOS>ATOM
      1 O           3.8248    0.2093    0.0000 O.3     1  UNL1       -0.3815
      2 O           3.3835    1.0474    0.0000 O.3     1  UNL1       -0.3851
      3 O           4.9011   -0.1215    0.0000 O.3     1  UNL1       -0.3765
      4 O           6.7237    3.6404    0.0000 O.3     1  UNL1       -0.3791
      5 O           3.0073    3.3888    0.0000 O.3     1  UNL1       -0.4608
      6 O           2.6061    4.0983    0.0000 O.3     1  UNL1       -0.3793
      7 O           7.5898   -0.5948    0.0000 O.3     1  UNL1       -0.4605
      8 O           2.0103    1.9725    0.0000 O.2     1  UNL1       -0.2512
      9 O           6.7237   -2.0948    0.0000 O.2     1  UNL1       -0.2449
     10 O           8.4558   -5.0948    0.0000 O.2     1  UNL1       -0.2758
     11 N           7.9190    1.8113    0.0000 N.3     1  UNL1       -0.2955
     12 N           7.5897   -3.5948    0.0000 N.am    1  UNL1       -0.2850
     13 C           5.9724    2.2066    0.0000 C.3     1  UNL1        0.0245
     14 C           5.9724    1.3390    0.0000 C.3     1  UNL1        0.0078
     15 C           6.9744    2.1005    0.0000 C.3     1  UNL1        0.0529
     16 C           5.2941    2.7475    0.0000 C.3     1  UNL1       -0.0218
     17 C           4.4482    0.9911    0.0000 C.3     1  UNL1        0.1371
     18 C           4.4482    2.5544    0.0000 C.3     1  UNL1        0.0317
     19 C           4.0718    1.7728    0.0000 C.3     1  UNL1        0.1073
     20 C           5.2941    0.7981    0.0000 C.3     1  UNL1        0.0953
     21 C           6.7237    0.9052    0.0000 C.3     1  UNL1        0.0236
     22 C           6.7237    2.6404    0.0000 C.3     1  UNL1        0.0661
     23 C           5.3718    3.6116    0.0000 C.3     1  UNL1       -0.0405
     24 C           4.5741    3.9526    0.0000 C.3     1  UNL1        0.0231
     25 C           4.0033    3.2992    0.0000 C.3     1  UNL1        0.1140
     26 C           3.4269    2.0427    0.0000 C.3     1  UNL1        0.0060
     27 C           7.9190    1.0594    0.0000 C.3     1  UNL1        0.0084
     28 C           7.4751    1.3390    0.0000 C.3     1  UNL1       -0.0404
     29 C           3.4269    3.5272    0.0000 C.3     1  UNL1        0.0672
     30 C           7.4751    2.2066    0.0000 C.3     1  UNL1       -0.0254
     31 C           6.7237   -0.0948    0.0000 C.3     1  UNL1        0.0999
     32 C           8.7230    2.4060    0.0000 C.3     1  UNL1       -0.0035
     33 C           5.5009   -0.9216    0.0000 C.3     1  UNL1        0.0369
     34 C           9.6400    2.0071    0.0000 C.3     1  UNL1       -0.0523
     35 C           7.5898    4.1404    0.0000 C.3     1  UNL1        0.0368
     36 C           2.0999    2.9685    0.0000 C.2     1  UNL1        0.3042
     37 C           2.6902    5.0948    0.0000 C.3     1  UNL1        0.0368
     38 C           7.5898   -1.5948    0.0000 C.2     1  UNL1        0.3410
     39 C           1.2822    3.5441    0.0000 C.3     1  UNL1        0.0332
     40 C           8.4558   -2.0948    0.0000 C.ar    1  UNL1        0.0801
     41 C           8.4558   -3.0948    0.0000 C.ar    1  UNL1        0.0474
     42 C           9.3218   -1.5948    0.0000 C.ar    1  UNL1       -0.0460
     43 C           9.3218   -3.5948    0.0000 C.ar    1  UNL1       -0.0397
     44 C          10.1878   -2.0948    0.0000 C.ar    1  UNL1       -0.0609
     45 C          10.1878   -3.0948    0.0000 C.ar    1  UNL1       -0.0600
     46 C           7.5897   -4.5948    0.0000 C.2     1  UNL1        0.2141
     47 C           6.7237   -5.0948    0.0000 C.3     1  UNL1        0.0125
     48 H           6.0359    0.4914    0.0000 H       1  UNL1        0.0340
     49 H           7.2863    2.8912    0.0000 H       1  UNL1        0.0499
     50 H           6.0757    3.0816    0.0000 H       1  UNL1        0.0312
     51 H           3.5991    2.5163    0.0000 H       1  UNL1        0.0368
     52 H           5.4945    0.2114    0.0000 H       1  UNL1        0.0629
     53 H           6.1868    2.9504    0.0000 H       1  UNL1        0.0602
     54 H           5.5546    4.2040    0.0000 H       1  UNL1        0.0273
     55 H           5.9802    3.4918    0.0000 H       1  UNL1        0.0273
     56 H           4.5948    4.8023    0.0000 H       1  UNL1        0.0362
     57 H           3.7724    3.8746    0.0000 H       1  UNL1        0.0741
     58 H           3.2650    1.4442    0.0000 H       1  UNL1        0.0319
     59 H           2.8123    2.1244    0.0000 H       1  UNL1        0.0319
     60 H           8.5385    1.0860    0.0000 H       1  UNL1        0.0433
     61 H           7.9720    0.4417    0.0000 H       1  UNL1        0.0433
     62 H           8.0856    1.4466    0.0000 H       1  UNL1        0.0273
     63 H           7.6871    0.7564    0.0000 H       1  UNL1        0.0273
     64 H           3.5051    4.1423    0.0000 H       1  UNL1        0.0601
     65 H           7.6871    2.7892    0.0000 H       1  UNL1        0.0290
     66 H           8.0856    2.0989    0.0000 H       1  UNL1        0.0290
     67 H           6.5117   -0.6774    0.0000 H       1  UNL1        0.0704
     68 H           6.1131    0.0129    0.0000 H       1  UNL1        0.0704
     69 H           4.0513   -0.3678    0.0000 H       1  UNL1        0.2105
     70 H           2.7890    0.8713    0.0000 H       1  UNL1        0.2103
     71 H           8.2734    2.8329    0.0000 H       1  UNL1        0.0424
     72 H           9.0653    2.9230    0.0000 H       1  UNL1        0.0424
     73 H           5.9970   -0.5497    0.0000 H       1  UNL1        0.0524
     74 H           5.8728   -1.4177    0.0000 H       1  UNL1        0.0524
     75 H           5.0048   -1.2935    0.0000 H       1  UNL1        0.0524
     76 H           9.8873    2.5756    0.0000 H       1  UNL1        0.0242
     77 H          10.2085    1.7598    0.0000 H       1  UNL1        0.0242
     78 H           9.3927    1.4386    0.0000 H       1  UNL1        0.0242
     79 H           7.2798    4.6773    0.0000 H       1  UNL1        0.0524
     80 H           8.1267    4.4504    0.0000 H       1  UNL1        0.0524
     81 H           7.8998    3.6034    0.0000 H       1  UNL1        0.0524
     82 H           2.0724    5.1470    0.0000 H       1  UNL1        0.0524
     83 H           2.7424    5.7126    0.0000 H       1  UNL1        0.0524
     84 H           3.3080    5.0426    0.0000 H       1  UNL1        0.0524
     85 H           0.9253    3.0371    0.0000 H       1  UNL1        0.0342
     86 H           0.7752    3.9010    0.0000 H       1  UNL1        0.0342
     87 H           1.6391    4.0511    0.0000 H       1  UNL1        0.0342
     88 H           9.3218   -0.9748    0.0000 H       1  UNL1        0.0626
     89 H           9.3218   -4.2148    0.0000 H       1  UNL1        0.0636
     90 H          10.7248   -1.7848    0.0000 H       1  UNL1        0.0618
     91 H           7.0528   -3.2848    0.0000 H       1  UNL1        0.1548
     92 H          10.7248   -3.4048    0.0000 H       1  UNL1        0.0618
     93 H           7.0337   -5.6317    0.0000 H       1  UNL1        0.0323
     94 H           6.1868   -5.4048    0.0000 H       1  UNL1        0.0323
     95 H           6.4137   -4.5578    0.0000 H       1  UNL1        0.0323
@<TRIPOS>BOND
     1    17     1    1
     2     1    69    1
     3    19     2    1
     4     2    70    1
     5    20     3    1
     6     3    33    1
     7    22     4    1
     8     4    35    1
     9    25     5    1
    10     5    36    1
    11    29     6    1
    12     6    37    1
    13     7    31    1
    14     7    38    1
    15     8    36    2
    16     9    38    2
    17    10    46    2
    18    11    15    1
    19    11    27    1
    20    11    32    1
    21    12    41    1
    22    12    46   am
    23    12    91    1
    24    13    14    1
    25    13    15    1
    26    13    16    1
    27    13    22    1
    28    14    20    1
    29    14    21    1
    30    14    48    1
    31    15    17    1
    32    15    49    1
    33    16    18    1
    34    16    23    1
    35    16    50    1
    36    17    19    1
    37    17    20    1
    38    18    19    1
    39    18    25    1
    40    18    51    1
    41    19    26    1
    42    20    52    1
    43    21    27    1
    44    21    28    1
    45    21    31    1
    46    22    30    1
    47    22    53    1
    48    23    24    1
    49    23    54    1
    50    23    55    1
    51    24    25    1
    52    24    29    1
    53    24    56    1
    54    25    57    1
    55    26    29    1
    56    26    58    1
    57    26    59    1
    58    27    60    1
    59    27    61    1
    60    28    30    1
    61    28    62    1
    62    28    63    1
    63    29    64    1
    64    30    65    1
    65    30    66    1
    66    31    67    1
    67    31    68    1
    68    32    34    1
    69    32    71    1
    70    32    72    1
    71    33    73    1
    72    33    74    1
    73    33    75    1
    74    34    76    1
    75    34    77    1
    76    34    78    1
    77    35    79    1
    78    35    80    1
    79    35    81    1
    80    36    39    1
    81    37    82    1
    82    37    83    1
    83    37    84    1
    84    38    40    1
    85    39    85    1
    86    39    86    1
    87    39    87    1
    88    40    41   ar
    89    40    42   ar
    90    41    43   ar
    91    42    44   ar
    92    42    88    1
    93    43    45   ar
    94    43    89    1
    95    44    45   ar
    96    44    90    1
    97    45    92    1
    98    46    47    1
    99    47    93    1
   100    47    94    1
   101    47    95    1
