@<TRIPOS>MOLECULE
IMPHY013302
 79 83 0 0 0
SMALL
GASTEIGER

@<TRIPOS>ATOM
      1 O           9.7636    0.9016    0.0000 O.3     1  UNL1       -0.3808
      2 O          10.8117    1.4737    0.0000 O.2     1  UNL1       -0.2946
      3 C           6.5251   -0.0831    0.0000 C.3     1  UNL1       -0.0231
      4 C           5.6591   -0.5831    0.0000 C.3     1  UNL1       -0.0231
      5 C           6.5251    0.9169    0.0000 C.3     1  UNL1       -0.0294
      6 C           4.7931   -0.0831    0.0000 C.3     1  UNL1       -0.0294
      7 C           7.4191    1.4515    0.0000 C.3     1  UNL1       -0.0228
      8 C           3.8831   -0.5900    0.0000 C.3     1  UNL1       -0.0254
      9 C           8.3252    0.9377    0.0000 C.3     1  UNL1        0.0005
     10 C           3.8751   -1.6316    0.0000 C.3     1  UNL1       -0.0302
     11 C           7.4191   -0.6178    0.0000 C.3     1  UNL1       -0.0465
     12 C           5.6591    1.4169    0.0000 C.3     1  UNL1       -0.0489
     13 C           4.7931    0.9169    0.0000 C.3     1  UNL1       -0.0489
     14 C           5.6752   -1.6246    0.0000 C.3     1  UNL1       -0.0466
     15 C           8.3252   -0.1039    0.0000 C.3     1  UNL1       -0.0462
     16 C           4.7771   -2.1524    0.0000 C.3     1  UNL1       -0.0487
     17 C           7.6292    2.4655    0.0000 C.3     1  UNL1       -0.0440
     18 C           9.0875    1.6384    0.0000 C.3     1  UNL1        0.1266
     19 C           2.9396   -2.1813    0.0000 C.3     1  UNL1       -0.0315
     20 C           6.8672   -1.0228    0.0000 C.3     1  UNL1       -0.0588
     21 C           2.9562   -0.0259    0.0000 C.3     1  UNL1       -0.0471
     22 C           6.3019   -1.3492    0.0000 C.3     1  UNL1       -0.0588
     23 C           8.6582    2.5807    0.0000 C.3     1  UNL1       -0.0163
     24 C           6.5492    1.9448    0.0000 C.3     1  UNL1       -0.0589
     25 C           3.8908    0.4100    0.0000 C.3     1  UNL1       -0.0590
     26 C           2.0000   -1.6388    0.0000 C.3     1  UNL1       -0.0476
     27 C           2.0084   -0.5538    0.0000 C.3     1  UNL1       -0.0521
     28 C           2.4430   -3.0492    0.0000 C.3     1  UNL1       -0.0595
     29 C           3.4430   -3.0454    0.0000 C.3     1  UNL1       -0.0595
     30 C           9.9971    2.0538    0.0000 C.2     1  UNL1        0.1618
     31 C          10.0923    3.0492    0.0000 C.3     1  UNL1       -0.0032
     32 H           7.2645    0.4976    0.0000 H       1  UNL1        0.0312
     33 H           5.5292    0.3419    0.0000 H       1  UNL1        0.0312
     34 H           9.1034    0.5960    0.0000 H       1  UNL1        0.0338
     35 H           3.8783   -2.4816    0.0000 H       1  UNL1        0.0311
     36 H           7.0145   -1.0876    0.0000 H       1  UNL1        0.0271
     37 H           7.8127   -1.0968    0.0000 H       1  UNL1        0.0271
     38 H           6.0576    1.8918    0.0000 H       1  UNL1        0.0268
     39 H           5.2606    1.8918    0.0000 H       1  UNL1        0.0268
     40 H           4.5810    1.4995    0.0000 H       1  UNL1        0.0268
     41 H           4.1825    0.8092    0.0000 H       1  UNL1        0.0268
     42 H           5.8932   -2.2050    0.0000 H       1  UNL1        0.0271
     43 H           6.2843   -1.5091    0.0000 H       1  UNL1        0.0271
     44 H           8.5342   -0.6876    0.0000 H       1  UNL1        0.0269
     45 H           8.9360    0.0021    0.0000 H       1  UNL1        0.0269
     46 H           4.3798   -2.6284    0.0000 H       1  UNL1        0.0268
     47 H           5.1781   -2.6253    0.0000 H       1  UNL1        0.0268
     48 H           7.6253    3.0854    0.0000 H       1  UNL1        0.0272
     49 H           7.0122    2.5268    0.0000 H       1  UNL1        0.0272
     50 H           6.2847   -1.2349    0.0000 H       1  UNL1        0.0235
     51 H           7.0794   -1.6054    0.0000 H       1  UNL1        0.0235
     52 H           7.4498   -0.8107    0.0000 H       1  UNL1        0.0235
     53 H           3.3645    0.4408    0.0000 H       1  UNL1        0.0271
     54 H           2.5663    0.4561    0.0000 H       1  UNL1        0.0271
     55 H           5.8270   -1.7477    0.0000 H       1  UNL1        0.0235
     56 H           6.7004   -1.8241    0.0000 H       1  UNL1        0.0235
     57 H           6.7768   -0.9506    0.0000 H       1  UNL1        0.0235
     58 H           9.2463    2.7770    0.0000 H       1  UNL1        0.0297
     59 H           8.5248    3.1862    0.0000 H       1  UNL1        0.0297
     60 H           6.8551    2.4842    0.0000 H       1  UNL1        0.0235
     61 H           6.0099    2.2507    0.0000 H       1  UNL1        0.0235
     62 H           6.2434    1.4055    0.0000 H       1  UNL1        0.0235
     63 H           4.5108    0.4052    0.0000 H       1  UNL1        0.0235
     64 H           3.8956    1.0300    0.0000 H       1  UNL1        0.0235
     65 H           3.2708    0.4148    0.0000 H       1  UNL1        0.0235
     66 H           1.3900   -1.5280    0.0000 H       1  UNL1        0.0271
     67 H           1.7864   -2.2209    0.0000 H       1  UNL1        0.0271
     68 H           1.8038    0.0314    0.0000 H       1  UNL1        0.0266
     69 H           1.3967   -0.6552    0.0000 H       1  UNL1        0.0266
     70 H           1.9048   -2.7413    0.0000 H       1  UNL1        0.0235
     71 H           2.1350   -3.5874    0.0000 H       1  UNL1        0.0235
     72 H           2.9811   -3.3572    0.0000 H       1  UNL1        0.0235
     73 H           2.9072   -3.3575    0.0000 H       1  UNL1        0.0235
     74 H           3.7550   -3.5811    0.0000 H       1  UNL1        0.0235
     75 H           3.9787   -2.7333    0.0000 H       1  UNL1        0.0235
     76 H           9.5776    0.3102    0.0000 H       1  UNL1        0.2107
     77 H          10.7095    2.9903    0.0000 H       1  UNL1        0.0307
     78 H          10.1513    3.6664    0.0000 H       1  UNL1        0.0307
     79 H           9.4751    3.1082    0.0000 H       1  UNL1        0.0307
@<TRIPOS>BOND
     1    18     1    1
     2     1    76    1
     3     2    30    2
     4     3     4    1
     5     3     5    1
     6     3    11    1
     7     3    20    1
     8     4     6    1
     9     4    14    1
    10     4    22    1
    11     5     7    1
    12     5    12    1
    13     5    32    1
    14     6     8    1
    15     6    13    1
    16     6    33    1
    17     7     9    1
    18     7    17    1
    19     7    24    1
    20     8    10    1
    21     8    21    1
    22     8    25    1
    23     9    15    1
    24     9    18    1
    25     9    34    1
    26    10    16    1
    27    10    19    1
    28    10    35    1
    29    11    15    1
    30    11    36    1
    31    11    37    1
    32    12    13    1
    33    12    38    1
    34    12    39    1
    35    13    40    1
    36    13    41    1
    37    14    16    1
    38    14    42    1
    39    14    43    1
    40    15    44    1
    41    15    45    1
    42    16    46    1
    43    16    47    1
    44    17    23    1
    45    17    48    1
    46    17    49    1
    47    18    23    1
    48    18    30    1
    49    19    26    1
    50    19    28    1
    51    19    29    1
    52    20    50    1
    53    20    51    1
    54    20    52    1
    55    21    27    1
    56    21    53    1
    57    21    54    1
    58    22    55    1
    59    22    56    1
    60    22    57    1
    61    23    58    1
    62    23    59    1
    63    24    60    1
    64    24    61    1
    65    24    62    1
    66    25    63    1
    67    25    64    1
    68    25    65    1
    69    26    27    1
    70    26    66    1
    71    26    67    1
    72    27    68    1
    73    27    69    1
    74    28    70    1
    75    28    71    1
    76    28    72    1
    77    29    73    1
    78    29    74    1
    79    29    75    1
    80    30    31    1
    81    31    77    1
    82    31    78    1
    83    31    79    1
