@<TRIPOS>MOLECULE
IMPHY016944
 40 42 0 0 0
SMALL
GASTEIGER

@<TRIPOS>ATOM
      1 O           4.1199   -2.3302    0.0000 O.3     1  UNL1       -0.3883
      2 C           4.0791   -0.3613    0.0000 C.3     1  UNL1        0.0034
      3 C           3.1781    0.0726    0.0000 C.3     1  UNL1       -0.0238
      4 C           3.9431   -1.3460    0.0000 C.3     1  UNL1        0.0692
      5 C           3.9722    0.8155    0.0000 C.3     1  UNL1       -0.0379
      6 C           2.9556    1.0475    0.0000 C.3     1  UNL1       -0.0105
      7 C           4.5791    1.8294    0.0000 C.3     1  UNL1       -0.0190
      8 C           4.9800    0.0726    0.0000 C.3     1  UNL1       -0.0439
      9 C           2.4930   -0.6477    0.0000 C.3     1  UNL1       -0.0462
     10 C           5.2025    1.0475    0.0000 C.3     1  UNL1       -0.0459
     11 C           2.9648   -1.5227    0.0000 C.3     1  UNL1       -0.0234
     12 C           3.5791    1.8294    0.0000 C.2     1  UNL1       -0.0676
     13 C           4.9338   -1.4820    0.0000 C.3     1  UNL1       -0.0355
     14 C           2.2225    1.7277    0.0000 C.3     1  UNL1       -0.0558
     15 C           2.0000    0.7528    0.0000 C.3     1  UNL1       -0.0558
     16 C           3.1452    2.7303    0.0000 C.2     1  UNL1       -0.0987
     17 H           2.4123    0.4414    0.0000 H       1  UNL1        0.0315
     18 H           3.5644    1.2825    0.0000 H       1  UNL1        0.0277
     19 H           3.4022    0.5717    0.0000 H       1  UNL1        0.0277
     20 H           4.7682    2.6580    0.0000 H       1  UNL1        0.0346
     21 H           5.1180   -0.5319    0.0000 H       1  UNL1        0.0272
     22 H           5.6000    0.0726    0.0000 H       1  UNL1        0.0272
     23 H           2.0911   -0.1756    0.0000 H       1  UNL1        0.0269
     24 H           1.9812   -0.9977    0.0000 H       1  UNL1        0.0269
     25 H           5.7612    0.7785    0.0000 H       1  UNL1        0.0271
     26 H           5.5891    1.5323    0.0000 H       1  UNL1        0.0271
     27 H           2.3912   -1.7580    0.0000 H       1  UNL1        0.0293
     28 H           3.1385   -2.1178    0.0000 H       1  UNL1        0.0293
     29 H           4.8495   -2.0962    0.0000 H       1  UNL1        0.0257
     30 H           5.5480   -1.5662    0.0000 H       1  UNL1        0.0257
     31 H           5.0181   -0.8677    0.0000 H       1  UNL1        0.0257
     32 H           2.6442    2.1822    0.0000 H       1  UNL1        0.0238
     33 H           1.7680    2.1494    0.0000 H       1  UNL1        0.0238
     34 H           1.8008    1.2732    0.0000 H       1  UNL1        0.0238
     35 H           1.8172    1.3452    0.0000 H       1  UNL1        0.0238
     36 H           1.4075    0.5700    0.0000 H       1  UNL1        0.0238
     37 H           2.1828    0.1603    0.0000 H       1  UNL1        0.0238
     38 H           3.6463   -2.7303    0.0000 H       1  UNL1        0.2102
     39 H           3.4944    3.2426    0.0000 H       1  UNL1        0.0535
     40 H           2.5269    2.7767    0.0000 H       1  UNL1        0.0535
@<TRIPOS>BOND
     1     4     1    1
     2     1    38    1
     3     2     3    1
     4     2     4    1
     5     2     5    1
     6     2     8    1
     7     3     6    1
     8     3     9    1
     9     3    17    1
    10     4    11    1
    11     4    13    1
    12     5     7    1
    13     5    18    1
    14     5    19    1
    15     6    12    1
    16     6    14    1
    17     6    15    1
    18     7    10    1
    19     7    12    1
    20     7    20    1
    21     8    10    1
    22     8    21    1
    23     8    22    1
    24     9    11    1
    25     9    23    1
    26     9    24    1
    27    10    25    1
    28    10    26    1
    29    11    27    1
    30    11    28    1
    31    12    16    2
    32    13    29    1
    33    13    30    1
    34    13    31    1
    35    14    32    1
    36    14    33    1
    37    14    34    1
    38    15    35    1
    39    15    36    1
    40    15    37    1
    41    16    39    1
    42    16    40    1
