@<TRIPOS>MOLECULE
IMPHY010581
 147 155 0 0 0
SMALL
GASTEIGER

@<TRIPOS>ATOM
      1 O          19.5133    1.7227    0.0000 O.3     1  UNL1       -0.3877
      2 O          14.1244    2.7958    0.0000 O.3     1  UNL1       -0.3480
      3 O          21.7059   -2.8484    0.0000 O.3     1  UNL1       -0.4571
      4 O          12.3923    2.7958    0.0000 O.3     1  UNL1       -0.3456
      5 O          20.4432   -4.1058    0.0000 O.2     1  UNL1       -0.2456
      6 O          12.3923   -0.2042    0.0000 O.3     1  UNL1       -0.3890
      7 O          10.6603    0.7958    0.0000 O.3     1  UNL1       -0.3429
      8 O           9.7942    2.2958    0.0000 O.3     1  UNL1       -0.3456
      9 O           7.1962    0.7958    0.0000 O.3     1  UNL1       -0.3770
     10 O           7.1962    2.7958    0.0000 O.3     1  UNL1       -0.3403
     11 O           6.3301    1.2958    0.0000 O.3     1  UNL1       -0.3431
     12 O           3.7320    0.7958    0.0000 O.3     1  UNL1       -0.3428
     13 O           5.4641    3.7958    0.0000 O.3     1  UNL1       -0.3841
     14 O           3.7320    2.7958    0.0000 O.3     1  UNL1       -0.3744
     15 O           2.8660   -0.7042    0.0000 O.3     1  UNL1       -0.3456
     16 O           5.4641   -2.2042    0.0000 O.3     1  UNL1       -0.3770
     17 O           3.7320   -3.2042    0.0000 O.3     1  UNL1       -0.3867
     18 C          19.5095    0.7227    0.0000 C.3     1  UNL1        0.0751
     19 C          18.6454    1.2260    0.0000 C.3     1  UNL1       -0.0083
     20 C          17.7775    0.7294    0.0000 C.3     1  UNL1       -0.0299
     21 C          19.5056   -0.2773    0.0000 C.3     1  UNL1        0.0036
     22 C          16.8694    1.2397    0.0000 C.3     1  UNL1       -0.0259
     23 C          16.8654    2.2814    0.0000 C.3     1  UNL1       -0.0330
     24 C          17.7736   -0.2706    0.0000 C.3     1  UNL1       -0.0488
     25 C          18.6377   -0.7739    0.0000 C.3     1  UNL1       -0.0442
     26 C          20.4507   -0.5857    0.0000 C.3     1  UNL1       -0.0081
     27 C          18.6655    2.2675    0.0000 C.3     1  UNL1       -0.0470
     28 C          20.4569    1.0238    0.0000 C.3     1  UNL1       -0.0226
     29 C          17.7695    2.7987    0.0000 C.3     1  UNL1       -0.0493
     30 C          21.0374    0.2168    0.0000 C.3     1  UNL1       -0.0432
     31 C          15.9404    0.6792    0.0000 C.3     1  UNL1       -0.0448
     32 C          15.9321    2.8347    0.0000 C.3     1  UNL1       -0.0232
     33 C          19.5018   -1.2773    0.0000 C.3     1  UNL1       -0.0564
     34 C          16.8733    0.2397    0.0000 C.3     1  UNL1       -0.0590
     35 C          14.9946    1.2108    0.0000 C.3     1  UNL1       -0.0260
     36 C          14.9904    2.2958    0.0000 C.3     1  UNL1        0.0620
     37 C          20.7577   -1.5374    0.0000 C.2     1  UNL1       -0.0222
     38 C          21.7081   -1.8484    0.0000 C.3     1  UNL1        0.1147
     39 C          20.1682   -2.3451    0.0000 C.2     1  UNL1        0.0252
     40 C          13.2583    2.2958    0.0000 C.3     1  UNL1        0.1624
     41 C          20.7542   -3.1554    0.0000 C.2     1  UNL1        0.3323
     42 C          13.2583    1.2958    0.0000 C.3     1  UNL1        0.0270
     43 C          12.3923    0.7958    0.0000 C.3     1  UNL1        0.0884
     44 C          11.5263    2.2958    0.0000 C.3     1  UNL1        0.0875
     45 C          11.5263    1.2958    0.0000 C.3     1  UNL1        0.1134
     46 C          10.6603    2.7958    0.0000 C.3     1  UNL1       -0.0361
     47 C           9.7942    1.2958    0.0000 C.3     1  UNL1        0.1626
     48 C           8.9282    0.7958    0.0000 C.3     1  UNL1        0.0272
     49 C           8.0622    1.2958    0.0000 C.3     1  UNL1        0.0915
     50 C           8.9282    2.7958    0.0000 C.3     1  UNL1        0.0875
     51 C           8.0622    2.2958    0.0000 C.3     1  UNL1        0.1138
     52 C           8.9282    3.7958    0.0000 C.3     1  UNL1       -0.0361
     53 C           6.3301    2.2958    0.0000 C.3     1  UNL1        0.1883
     54 C           5.4641    2.7958    0.0000 C.3     1  UNL1        0.1344
     55 C           7.1962   -0.2042    0.0000 C.3     1  UNL1        0.0369
     56 C           4.5981    2.2958    0.0000 C.3     1  UNL1        0.1174
     57 C           4.5981    1.2958    0.0000 C.3     1  UNL1        0.1161
     58 C           5.4641    0.7958    0.0000 C.3     1  UNL1        0.0877
     59 C           5.4641   -0.2042    0.0000 C.3     1  UNL1       -0.0360
     60 C           3.7320   -0.2042    0.0000 C.3     1  UNL1        0.1626
     61 C           4.5981   -0.7042    0.0000 C.3     1  UNL1        0.0272
     62 C           4.5981   -1.7042    0.0000 C.3     1  UNL1        0.0911
     63 C           3.7320   -2.2042    0.0000 C.3     1  UNL1        0.1073
     64 C           2.8660   -1.7042    0.0000 C.3     1  UNL1        0.0871
     65 C           2.8660    2.2958    0.0000 C.3     1  UNL1        0.0370
     66 C           2.0000   -2.2042    0.0000 C.3     1  UNL1       -0.0361
     67 C           5.4641   -3.2042    0.0000 C.3     1  UNL1        0.0369
     68 H          19.3864    1.6425    0.0000 H       1  UNL1        0.0331
     69 H          18.5119    0.3015    0.0000 H       1  UNL1        0.0310
     70 H          16.8719    3.1313    0.0000 H       1  UNL1        0.0307
     71 H          17.1634   -0.1606    0.0000 H       1  UNL1        0.0268
     72 H          17.5593   -0.8524    0.0000 H       1  UNL1        0.0268
     73 H          18.2373   -1.2474    0.0000 H       1  UNL1        0.0272
     74 H          19.0344   -1.2504    0.0000 H       1  UNL1        0.0272
     75 H          21.0628   -0.6842    0.0000 H       1  UNL1        0.0353
     76 H          19.2742    2.1496    0.0000 H       1  UNL1        0.0269
     77 H          18.8857    2.8470    0.0000 H       1  UNL1        0.0269
     78 H          20.9954    1.3309    0.0000 H       1  UNL1        0.0293
     79 H          20.2080    1.5917    0.0000 H       1  UNL1        0.0293
     80 H          18.1723    3.2700    0.0000 H       1  UNL1        0.0268
     81 H          17.3740    3.2762    0.0000 H       1  UNL1        0.0268
     82 H          21.4966   -0.1997    0.0000 H       1  UNL1        0.0272
     83 H          21.4998    0.6298    0.0000 H       1  UNL1        0.0272
     84 H          15.5486    0.1987    0.0000 H       1  UNL1        0.0271
     85 H          16.3468    0.2110    0.0000 H       1  UNL1        0.0271
     86 H          16.3349    3.3060    0.0000 H       1  UNL1        0.0293
     87 H          15.5366    3.3122    0.0000 H       1  UNL1        0.0293
     88 H          18.8818   -1.2749    0.0000 H       1  UNL1        0.0236
     89 H          19.4994   -1.8973    0.0000 H       1  UNL1        0.0236
     90 H          20.1218   -1.2797    0.0000 H       1  UNL1        0.0236
     91 H          16.2533    0.2373    0.0000 H       1  UNL1        0.0235
     92 H          16.8757   -0.3803    0.0000 H       1  UNL1        0.0235
     93 H          17.4933    0.2421    0.0000 H       1  UNL1        0.0235
     94 H          14.3833    1.3146    0.0000 H       1  UNL1        0.0290
     95 H          14.7878    0.6263    0.0000 H       1  UNL1        0.0290
     96 H          14.9916    2.9158    0.0000 H       1  UNL1        0.0597
     97 H          20.0515    2.0306    0.0000 H       1  UNL1        0.2102
     98 H          22.3245   -1.9145    0.0000 H       1  UNL1        0.0746
     99 H          21.8383   -1.2422    0.0000 H       1  UNL1        0.0746
    100 H          19.5482   -2.3438    0.0000 H       1  UNL1        0.0689
    101 H          13.7953    1.9858    0.0000 H       1  UNL1        0.0910
    102 H          13.4704    0.7132    0.0000 H       1  UNL1        0.0340
    103 H          13.8689    1.4035    0.0000 H       1  UNL1        0.0340
    104 H          11.8554    0.4858    0.0000 H       1  UNL1        0.0622
    105 H          11.5263    2.9158    0.0000 H       1  UNL1        0.0621
    106 H          10.9893    1.6058    0.0000 H       1  UNL1        0.0649
    107 H          10.9703    3.3327    0.0000 H       1  UNL1        0.0255
    108 H          10.1233    3.1058    0.0000 H       1  UNL1        0.0255
    109 H          10.3503    2.2589    0.0000 H       1  UNL1        0.0255
    110 H          12.9292   -0.5142    0.0000 H       1  UNL1        0.2099
    111 H           9.7942    0.6758    0.0000 H       1  UNL1        0.0910
    112 H           8.5297    0.3209    0.0000 H       1  UNL1        0.0340
    113 H           9.3267    0.3209    0.0000 H       1  UNL1        0.0340
    114 H           8.0622    0.6758    0.0000 H       1  UNL1        0.0624
    115 H           9.4651    3.1058    0.0000 H       1  UNL1        0.0621
    116 H           8.0622    2.9158    0.0000 H       1  UNL1        0.0649
    117 H           9.5482    3.7958    0.0000 H       1  UNL1        0.0255
    118 H           8.9282    4.4158    0.0000 H       1  UNL1        0.0255
    119 H           8.3082    3.7958    0.0000 H       1  UNL1        0.0255
    120 H           6.3301    2.9158    0.0000 H       1  UNL1        0.0938
    121 H           4.9272    3.1058    0.0000 H       1  UNL1        0.0671
    122 H           6.5762   -0.2042    0.0000 H       1  UNL1        0.0524
    123 H           7.1962   -0.8242    0.0000 H       1  UNL1        0.0524
    124 H           7.8162   -0.2042    0.0000 H       1  UNL1        0.0524
    125 H           5.1602    2.9158    0.0000 H       1  UNL1        0.0650
    126 H           4.5981    0.6758    0.0000 H       1  UNL1        0.0650
    127 H           6.0010    0.4858    0.0000 H       1  UNL1        0.0621
    128 H           4.8441   -0.2042    0.0000 H       1  UNL1        0.0255
    129 H           5.4641   -0.8242    0.0000 H       1  UNL1        0.0255
    130 H           6.0841   -0.2042    0.0000 H       1  UNL1        0.0255
    131 H           4.9272    4.1058    0.0000 H       1  UNL1        0.2101
    132 H           4.2690    0.1058    0.0000 H       1  UNL1        0.0910
    133 H           5.2087   -0.8119    0.0000 H       1  UNL1        0.0340
    134 H           4.8101   -0.1216    0.0000 H       1  UNL1        0.0340
    135 H           4.5981   -2.3242    0.0000 H       1  UNL1        0.0624
    136 H           3.1951   -2.5142    0.0000 H       1  UNL1        0.0645
    137 H           2.3291   -1.3942    0.0000 H       1  UNL1        0.0621
    138 H           2.5560    2.8327    0.0000 H       1  UNL1        0.0524
    139 H           2.3291    1.9858    0.0000 H       1  UNL1        0.0524
    140 H           3.1760    1.7589    0.0000 H       1  UNL1        0.0524
    141 H           1.6900   -1.6673    0.0000 H       1  UNL1        0.0255
    142 H           1.4631   -2.5142    0.0000 H       1  UNL1        0.0255
    143 H           2.3100   -2.7411    0.0000 H       1  UNL1        0.0255
    144 H           3.1951   -3.5142    0.0000 H       1  UNL1        0.2100
    145 H           4.8441   -3.2042    0.0000 H       1  UNL1        0.0524
    146 H           5.4641   -3.8242    0.0000 H       1  UNL1        0.0524
    147 H           6.0841   -3.2042    0.0000 H       1  UNL1        0.0524
@<TRIPOS>BOND
     1    18     1    1
     2     1    97    1
     3    36     2    1
     4    40     2    1
     5     3    38    1
     6     3    41    1
     7     4    40    1
     8     4    44    1
     9     5    41    2
    10    43     6    1
    11     6   110    1
    12    45     7    1
    13    47     7    1
    14     8    47    1
    15     8    50    1
    16    49     9    1
    17     9    55    1
    18    51    10    1
    19    53    10    1
    20    11    53    1
    21    11    58    1
    22    57    12    1
    23    60    12    1
    24    54    13    1
    25    13   131    1
    26    56    14    1
    27    14    65    1
    28    15    60    1
    29    15    64    1
    30    62    16    1
    31    16    67    1
    32    63    17    1
    33    17   144    1
    34    18    19    1
    35    18    21    1
    36    18    28    1
    37    19    20    1
    38    19    27    1
    39    19    68    1
    40    20    22    1
    41    20    24    1
    42    20    69    1
    43    21    25    1
    44    21    26    1
    45    21    33    1
    46    22    23    1
    47    22    31    1
    48    22    34    1
    49    23    29    1
    50    23    32    1
    51    23    70    1
    52    24    25    1
    53    24    71    1
    54    24    72    1
    55    25    73    1
    56    25    74    1
    57    26    30    1
    58    26    37    1
    59    26    75    1
    60    27    29    1
    61    27    76    1
    62    27    77    1
    63    28    30    1
    64    28    78    1
    65    28    79    1
    66    29    80    1
    67    29    81    1
    68    30    82    1
    69    30    83    1
    70    31    35    1
    71    31    84    1
    72    31    85    1
    73    32    36    1
    74    32    86    1
    75    32    87    1
    76    33    88    1
    77    33    89    1
    78    33    90    1
    79    34    91    1
    80    34    92    1
    81    34    93    1
    82    35    36    1
    83    35    94    1
    84    35    95    1
    85    36    96    1
    86    37    38    1
    87    37    39    2
    88    38    98    1
    89    38    99    1
    90    39    41    1
    91    39   100    1
    92    40    42    1
    93    40   101    1
    94    42    43    1
    95    42   102    1
    96    42   103    1
    97    43    45    1
    98    43   104    1
    99    44    45    1
   100    44    46    1
   101    44   105    1
   102    45   106    1
   103    46   107    1
   104    46   108    1
   105    46   109    1
   106    47    48    1
   107    47   111    1
   108    48    49    1
   109    48   112    1
   110    48   113    1
   111    49    51    1
   112    49   114    1
   113    50    51    1
   114    50    52    1
   115    50   115    1
   116    51   116    1
   117    52   117    1
   118    52   118    1
   119    52   119    1
   120    53    54    1
   121    53   120    1
   122    54    56    1
   123    54   121    1
   124    55   122    1
   125    55   123    1
   126    55   124    1
   127    56    57    1
   128    56   125    1
   129    57    58    1
   130    57   126    1
   131    58    59    1
   132    58   127    1
   133    59   128    1
   134    59   129    1
   135    59   130    1
   136    60    61    1
   137    60   132    1
   138    61    62    1
   139    61   133    1
   140    61   134    1
   141    62    63    1
   142    62   135    1
   143    63    64    1
   144    63   136    1
   145    64    66    1
   146    64   137    1
   147    65   138    1
   148    65   139    1
   149    65   140    1
   150    66   141    1
   151    66   142    1
   152    66   143    1
   153    67   145    1
   154    67   146    1
   155    67   147    1
