@<TRIPOS>MOLECULE
IMPHY008742
 81 85 0 0 0
SMALL
GASTEIGER

@<TRIPOS>ATOM
      1 O          10.9848    2.5364    0.0000 O.3     1  UNL1       -0.3909
      2 C           5.6449   -0.6080    0.0000 C.3     1  UNL1       -0.0228
      3 C           6.5109   -1.1080    0.0000 C.3     1  UNL1       -0.0228
      4 C           4.7349   -1.1148    0.0000 C.3     1  UNL1       -0.0269
      5 C           7.3770   -0.6080    0.0000 C.3     1  UNL1       -0.0257
      6 C           7.3770    0.3920    0.0000 C.3     1  UNL1       -0.0219
      7 C           4.7269   -2.1564    0.0000 C.3     1  UNL1       -0.0284
      8 C           5.6449    0.3920    0.0000 C.3     1  UNL1       -0.0463
      9 C           6.5270   -2.1495    0.0000 C.3     1  UNL1       -0.0463
     10 C           6.5109    0.8920    0.0000 C.3     1  UNL1       -0.0463
     11 C           5.6290   -2.6772    0.0000 C.3     1  UNL1       -0.0468
     12 C           3.8081   -0.5507    0.0000 C.3     1  UNL1       -0.0375
     13 C           8.2709    0.9267    0.0000 C.3     1  UNL1       -0.0136
     14 C           3.7914   -2.7062    0.0000 C.3     1  UNL1       -0.0471
     15 C           8.2709   -1.1426    0.0000 C.3     1  UNL1       -0.0306
     16 C           4.7789   -0.1080    0.0000 C.3     1  UNL1       -0.0588
     17 C           7.3770   -1.6080    0.0000 C.3     1  UNL1       -0.0588
     18 C           2.8602   -1.0787    0.0000 C.3     1  UNL1       -0.0410
     19 C           9.1770    0.4128    0.0000 C.2     1  UNL1       -0.0618
     20 C           2.8518   -2.1636    0.0000 C.3     1  UNL1       -0.0497
     21 C           7.3770    1.3920    0.0000 C.3     1  UNL1       -0.0587
     22 C           4.7192   -3.1564    0.0000 C.3     1  UNL1       -0.0593
     23 C           8.2458    2.0114    0.0000 C.3     1  UNL1       -0.0436
     24 C           9.1770   -0.6288    0.0000 C.2     1  UNL1       -0.0836
     25 C          10.1208    0.9481    0.0000 C.3     1  UNL1        0.0123
     26 C           3.8273    0.4491    0.0000 C.3     1  UNL1       -0.0619
     27 C           9.1770    2.5683    0.0000 C.3     1  UNL1       -0.0255
     28 C          10.1208    2.0331    0.0000 C.3     1  UNL1        0.0640
     29 C           2.0000   -0.5687    0.0000 C.3     1  UNL1       -0.0622
     30 C          11.1207    0.9442    0.0000 C.3     1  UNL1       -0.0537
     31 C          10.6174    0.0801    0.0000 C.3     1  UNL1       -0.0537
     32 H           5.4661   -1.5483    0.0000 H       1  UNL1        0.0314
     33 H           8.1163   -0.1887    0.0000 H       1  UNL1        0.0315
     34 H           5.4329    0.9746    0.0000 H       1  UNL1        0.0271
     35 H           5.0343    0.2844    0.0000 H       1  UNL1        0.0271
     36 H           6.7450   -2.7299    0.0000 H       1  UNL1        0.0271
     37 H           7.1361   -2.0340    0.0000 H       1  UNL1        0.0271
     38 H           6.9095    1.3670    0.0000 H       1  UNL1        0.0271
     39 H           6.1124    1.3670    0.0000 H       1  UNL1        0.0271
     40 H           5.2316   -3.1532    0.0000 H       1  UNL1        0.0271
     41 H           6.0299   -3.1501    0.0000 H       1  UNL1        0.0271
     42 H           4.3515   -0.2522    0.0000 H       1  UNL1        0.0304
     43 H           9.0004    1.3630    0.0000 H       1  UNL1        0.0351
     44 H           7.8663   -1.6124    0.0000 H       1  UNL1        0.0310
     45 H           8.6645   -1.6217    0.0000 H       1  UNL1        0.0310
     46 H           3.3942   -3.1821    0.0000 H       1  UNL1        0.0271
     47 H           4.1924   -3.1790    0.0000 H       1  UNL1        0.0271
     48 H           5.0889    0.4290    0.0000 H       1  UNL1        0.0235
     49 H           4.2420    0.2020    0.0000 H       1  UNL1        0.0235
     50 H           4.4689   -0.6449    0.0000 H       1  UNL1        0.0235
     51 H           7.0670   -2.1449    0.0000 H       1  UNL1        0.0235
     52 H           7.9139   -1.9180    0.0000 H       1  UNL1        0.0235
     53 H           7.6870   -1.0710    0.0000 H       1  UNL1        0.0235
     54 H           2.3203   -1.3835    0.0000 H       1  UNL1        0.0301
     55 H           2.2418   -2.0529    0.0000 H       1  UNL1        0.0268
     56 H           2.6383   -2.7457    0.0000 H       1  UNL1        0.0268
     57 H           7.9970    1.3920    0.0000 H       1  UNL1        0.0235
     58 H           7.3770    2.0120    0.0000 H       1  UNL1        0.0235
     59 H           6.7570    1.3920    0.0000 H       1  UNL1        0.0235
     60 H           4.0992   -3.1516    0.0000 H       1  UNL1        0.0235
     61 H           4.7144   -3.7764    0.0000 H       1  UNL1        0.0235
     62 H           5.3392   -3.1612    0.0000 H       1  UNL1        0.0235
     63 H           8.0233    2.5901    0.0000 H       1  UNL1        0.0272
     64 H           7.6376    1.8912    0.0000 H       1  UNL1        0.0272
     65 H           9.7127   -0.9409    0.0000 H       1  UNL1        0.0572
     66 H           4.4472    0.4371    0.0000 H       1  UNL1        0.0233
     67 H           3.8393    1.0690    0.0000 H       1  UNL1        0.0233
     68 H           3.2075    0.4610    0.0000 H       1  UNL1        0.0233
     69 H           9.5706    3.0473    0.0000 H       1  UNL1        0.0290
     70 H           8.7724    3.0381    0.0000 H       1  UNL1        0.0290
     71 H          10.6583    1.7241    0.0000 H       1  UNL1        0.0602
     72 H           2.3162   -0.0354    0.0000 H       1  UNL1        0.0233
     73 H           1.4667   -0.2525    0.0000 H       1  UNL1        0.0233
     74 H           1.6838   -1.1020    0.0000 H       1  UNL1        0.0233
     75 H          10.0793   -0.2278    0.0000 H       1  UNL1        0.0239
     76 H          10.9253   -0.4580    0.0000 H       1  UNL1        0.0239
     77 H          11.1555    0.3881    0.0000 H       1  UNL1        0.0239
     78 H          11.1184    0.3242    0.0000 H       1  UNL1        0.0239
     79 H          11.7407    0.9418    0.0000 H       1  UNL1        0.0239
     80 H          11.1231    1.5642    0.0000 H       1  UNL1        0.0239
     81 H          10.9825    3.1564    0.0000 H       1  UNL1        0.2098
@<TRIPOS>BOND
     1    28     1    1
     2     1    81    1
     3     2     3    1
     4     2     4    1
     5     2     8    1
     6     2    16    1
     7     3     5    1
     8     3     9    1
     9     3    17    1
    10     4     7    1
    11     4    12    1
    12     4    32    1
    13     5     6    1
    14     5    15    1
    15     5    33    1
    16     6    10    1
    17     6    13    1
    18     6    21    1
    19     7    11    1
    20     7    14    1
    21     7    22    1
    22     8    10    1
    23     8    34    1
    24     8    35    1
    25     9    11    1
    26     9    36    1
    27     9    37    1
    28    10    38    1
    29    10    39    1
    30    11    40    1
    31    11    41    1
    32    12    18    1
    33    12    26    1
    34    12    42    1
    35    13    19    1
    36    13    23    1
    37    13    43    1
    38    14    20    1
    39    14    46    1
    40    14    47    1
    41    15    24    1
    42    15    44    1
    43    15    45    1
    44    16    48    1
    45    16    49    1
    46    16    50    1
    47    17    51    1
    48    17    52    1
    49    17    53    1
    50    18    20    1
    51    18    29    1
    52    18    54    1
    53    19    24    2
    54    19    25    1
    55    20    55    1
    56    20    56    1
    57    21    57    1
    58    21    58    1
    59    21    59    1
    60    22    60    1
    61    22    61    1
    62    22    62    1
    63    23    27    1
    64    23    63    1
    65    23    64    1
    66    24    65    1
    67    25    28    1
    68    25    30    1
    69    25    31    1
    70    26    66    1
    71    26    67    1
    72    26    68    1
    73    27    28    1
    74    27    69    1
    75    27    70    1
    76    28    71    1
    77    29    72    1
    78    29    73    1
    79    29    74    1
    80    30    78    1
    81    30    79    1
    82    30    80    1
    83    31    75    1
    84    31    76    1
    85    31    77    1
