@<TRIPOS>MOLECULE
IMPHY001731
 105 112 0 0 0
SMALL
GASTEIGER

@<TRIPOS>ATOM
      1 O          11.1759    3.0363    0.0000 O.3     1  UNL1       -0.3401
      2 O          12.1837    2.2934    0.0000 O.3     1  UNL1       -0.3373
      3 O          11.8683    0.1825    0.0000 O.3     1  UNL1       -0.3859
      4 O           6.3222   -3.8267    0.0000 O.3     1  UNL1       -0.3440
      5 O          14.3561    3.7134    0.0000 O.3     1  UNL1       -0.3865
      6 O           4.8008   -4.6546    0.0000 O.3     1  UNL1       -0.3451
      7 O           5.3661   -2.0700    0.0000 O.3     1  UNL1       -0.4537
      8 O           3.3668   -2.0196    0.0000 O.3     1  UNL1       -0.3853
      9 O           2.3234   -3.7259    0.0000 O.3     1  UNL1       -0.3868
     10 O           3.8884   -1.1664    0.0000 O.2     1  UNL1       -0.2512
     11 C           8.6033   -0.1693    0.0000 C.3     1  UNL1       -0.0193
     12 C           8.0301   -1.0830    0.0000 C.3     1  UNL1       -0.0193
     13 C           9.6386   -0.1914    0.0000 C.3     1  UNL1       -0.0264
     14 C           7.5250   -0.1294    0.0000 C.3     1  UNL1       -0.0401
     15 C          10.1685    0.6982    0.0000 C.3     1  UNL1        0.0081
     16 C           8.5420   -2.0323    0.0000 C.3     1  UNL1       -0.0273
     17 C           9.6966    1.5731    0.0000 C.3     1  UNL1       -0.0158
     18 C           8.1119    0.7421    0.0000 C.3     1  UNL1       -0.0460
     19 C           6.9077   -1.0330    0.0000 C.3     1  UNL1       -0.0442
     20 C          10.1723   -1.1287    0.0000 C.3     1  UNL1       -0.0488
     21 C           8.6622    1.6192    0.0000 C.3     1  UNL1       -0.0461
     22 C          10.3817    2.2934    0.0000 C.3     1  UNL1        0.0244
     23 C           9.6203   -2.0553    0.0000 C.3     1  UNL1       -0.0488
     24 C          11.1467    0.8748    0.0000 C.3     1  UNL1        0.1153
     25 C           7.9670   -2.9975    0.0000 C.3     1  UNL1       -0.0052
     26 C          11.2827    1.8595    0.0000 C.3     1  UNL1        0.2010
     27 C           6.3106   -1.9847    0.0000 C.3     1  UNL1       -0.0255
     28 C          10.6431   -0.1820    0.0000 C.3     1  UNL1       -0.0562
     29 C           6.8438   -2.9735    0.0000 C.3     1  UNL1        0.0672
     30 C           9.2220    2.4533    0.0000 C.3     1  UNL1       -0.0585
     31 C          10.1592    3.2684    0.0000 C.3     1  UNL1       -0.0331
     32 C          11.7827    4.0502    0.0000 C.3     1  UNL1        0.0912
     33 C           7.9496   -3.9974    0.0000 C.3     1  UNL1       -0.0572
     34 C           8.8242   -3.5126    0.0000 C.3     1  UNL1       -0.0572
     35 C          10.7827    4.0502    0.0000 C.3     1  UNL1       -0.0209
     36 C          12.4062    3.2684    0.0000 C.3     1  UNL1        0.1162
     37 C           9.1843    3.4909    0.0000 C.3     1  UNL1       -0.0619
     38 C          13.3811    3.4909    0.0000 C.3     1  UNL1        0.0890
     39 C           5.3225   -3.8015    0.0000 C.3     1  UNL1        0.1992
     40 C          13.6037    2.5159    0.0000 C.3     1  UNL1       -0.0338
     41 C          13.1586    4.4658    0.0000 C.3     1  UNL1       -0.0338
     42 C           4.8445   -2.9231    0.0000 C.3     1  UNL1        0.1816
     43 C           3.8448   -2.8979    0.0000 C.3     1  UNL1        0.1248
     44 C           3.8011   -4.6294    0.0000 C.3     1  UNL1        0.0793
     45 C           3.3231   -3.7511    0.0000 C.3     1  UNL1        0.1080
     46 C           4.8881   -1.1916    0.0000 C.2     1  UNL1        0.3044
     47 C           5.4098   -0.3385    0.0000 C.3     1  UNL1        0.0332
     48 H          10.4885   -0.1998    0.0000 H       1  UNL1        0.0313
     49 H           7.4399    0.4847    0.0000 H       1  UNL1        0.0276
     50 H           6.9350   -0.3200    0.0000 H       1  UNL1        0.0276
     51 H           8.9540   -2.7758    0.0000 H       1  UNL1        0.0312
     52 H           7.6508    1.1566    0.0000 H       1  UNL1        0.0271
     53 H           7.6246    0.3587    0.0000 H       1  UNL1        0.0271
     54 H           7.0408   -0.4275    0.0000 H       1  UNL1        0.0272
     55 H           6.3339   -0.7982    0.0000 H       1  UNL1        0.0272
     56 H          10.6428   -1.5324    0.0000 H       1  UNL1        0.0268
     57 H          10.6506   -0.7342    0.0000 H       1  UNL1        0.0268
     58 H           8.7953    2.2247    0.0000 H       1  UNL1        0.0271
     59 H           8.0884    1.8540    0.0000 H       1  UNL1        0.0271
     60 H           9.6159    2.6622    0.0000 H       1  UNL1        0.0362
     61 H           9.5012   -2.6638    0.0000 H       1  UNL1        0.0268
     62 H          10.1994   -2.2768    0.0000 H       1  UNL1        0.0268
     63 H          11.7324    1.0783    0.0000 H       1  UNL1        0.0653
     64 H           5.8495   -1.5701    0.0000 H       1  UNL1        0.0290
     65 H           5.8233   -2.3680    0.0000 H       1  UNL1        0.0290
     66 H          10.0974   -0.4763    0.0000 H       1  UNL1        0.0236
     67 H          10.9374   -0.7278    0.0000 H       1  UNL1        0.0236
     68 H          11.1888    0.1122    0.0000 H       1  UNL1        0.0236
     69 H           6.2240   -2.9567    0.0000 H       1  UNL1        0.0602
     70 H           9.9544    3.8536    0.0000 H       1  UNL1        0.0303
     71 H           9.7677    2.7476    0.0000 H       1  UNL1        0.0235
     72 H           8.9277    2.9990    0.0000 H       1  UNL1        0.0235
     73 H           8.6763    2.1590    0.0000 H       1  UNL1        0.0235
     74 H          11.9719    4.8789    0.0000 H       1  UNL1        0.0624
     75 H           7.3296   -3.9865    0.0000 H       1  UNL1        0.0236
     76 H           7.9387   -4.6173    0.0000 H       1  UNL1        0.0236
     77 H           8.5695   -4.0082    0.0000 H       1  UNL1        0.0236
     78 H           8.5048   -4.0440    0.0000 H       1  UNL1        0.0236
     79 H           9.3556   -3.8319    0.0000 H       1  UNL1        0.0236
     80 H           9.1435   -2.9812    0.0000 H       1  UNL1        0.0236
     81 H          10.9207    4.6546    0.0000 H       1  UNL1        0.0294
     82 H          10.2241    4.3192    0.0000 H       1  UNL1        0.0294
     83 H          13.0072    2.6673    0.0000 H       1  UNL1        0.0652
     84 H          12.4637    0.3553    0.0000 H       1  UNL1        0.2100
     85 H           9.3223    4.0953    0.0000 H       1  UNL1        0.0233
     86 H           8.5798    3.6288    0.0000 H       1  UNL1        0.0233
     87 H           9.0463    2.8864    0.0000 H       1  UNL1        0.0233
     88 H           5.6188   -4.3461    0.0000 H       1  UNL1        0.0949
     89 H          12.9992    2.3780    0.0000 H       1  UNL1        0.0258
     90 H          13.7416    1.9115    0.0000 H       1  UNL1        0.0258
     91 H          13.7631    4.6038    0.0000 H       1  UNL1        0.0258
     92 H          13.0206    5.0702    0.0000 H       1  UNL1        0.0258
     93 H          12.5542    4.3278    0.0000 H       1  UNL1        0.0258
     94 H          14.2081    2.6539    0.0000 H       1  UNL1        0.0258
     95 H           5.4643   -2.9388    0.0000 H       1  UNL1        0.0813
     96 H          14.5388    4.3058    0.0000 H       1  UNL1        0.2102
     97 H           3.2250   -2.8823    0.0000 H       1  UNL1        0.0659
     98 H           3.2134   -4.8267    0.0000 H       1  UNL1        0.0587
     99 H           3.8934   -5.2425    0.0000 H       1  UNL1        0.0587
    100 H           2.9997   -4.2800    0.0000 H       1  UNL1        0.0643
    101 H           2.7470   -2.0040    0.0000 H       1  UNL1        0.2101
    102 H           2.0000   -4.2548    0.0000 H       1  UNL1        0.2100
    103 H           5.9387   -0.6619    0.0000 H       1  UNL1        0.0342
    104 H           5.7332    0.1905    0.0000 H       1  UNL1        0.0342
    105 H           4.8808   -0.0151    0.0000 H       1  UNL1        0.0342
@<TRIPOS>BOND
     1    26     1    1
     2     1    32    1
     3     2    26    1
     4     2    36    1
     5    24     3    1
     6     3    84    1
     7    29     4    1
     8    39     4    1
     9     5    38    1
    10     5    96    1
    11     6    39    1
    12     6    44    1
    13    42     7    1
    14     7    46    1
    15    43     8    1
    16     8   101    1
    17    45     9    1
    18     9   102    1
    19    10    46    2
    20    11    12    1
    21    11    13    1
    22    11    14    1
    23    11    18    1
    24    12    14    1
    25    12    16    1
    26    12    19    1
    27    13    15    1
    28    13    20    1
    29    13    48    1
    30    14    49    1
    31    14    50    1
    32    15    17    1
    33    15    24    1
    34    15    28    1
    35    16    23    1
    36    16    25    1
    37    16    51    1
    38    17    21    1
    39    17    22    1
    40    17    30    1
    41    18    21    1
    42    18    52    1
    43    18    53    1
    44    19    27    1
    45    19    54    1
    46    19    55    1
    47    20    23    1
    48    20    56    1
    49    20    57    1
    50    21    58    1
    51    21    59    1
    52    22    26    1
    53    22    31    1
    54    22    60    1
    55    23    61    1
    56    23    62    1
    57    24    26    1
    58    24    63    1
    59    25    29    1
    60    25    33    1
    61    25    34    1
    62    27    29    1
    63    27    64    1
    64    27    65    1
    65    28    66    1
    66    28    67    1
    67    28    68    1
    68    29    69    1
    69    30    71    1
    70    30    72    1
    71    30    73    1
    72    31    35    1
    73    31    37    1
    74    31    70    1
    75    32    35    1
    76    32    36    1
    77    32    74    1
    78    33    75    1
    79    33    76    1
    80    33    77    1
    81    34    78    1
    82    34    79    1
    83    34    80    1
    84    35    81    1
    85    35    82    1
    86    36    38    1
    87    36    83    1
    88    37    85    1
    89    37    86    1
    90    37    87    1
    91    38    40    1
    92    38    41    1
    93    39    42    1
    94    39    88    1
    95    40    89    1
    96    40    90    1
    97    40    94    1
    98    41    91    1
    99    41    92    1
   100    41    93    1
   101    42    43    1
   102    42    95    1
   103    43    45    1
   104    43    97    1
   105    44    45    1
   106    44    98    1
   107    44    99    1
   108    45   100    1
   109    46    47    1
   110    47   103    1
   111    47   104    1
   112    47   105    1
