@<TRIPOS>MOLECULE
IMPHY006591
 165 172 0 0 0
SMALL
GASTEIGER

@<TRIPOS>ATOM
      1 O           9.4528    4.7554    0.0000 O.3     1  UNL1       -0.3454
      2 O           7.7331   -3.3889    0.0000 O.3     1  UNL1       -0.3451
      3 O          10.4489    5.7592    0.0000 O.3     1  UNL1       -0.3521
      4 O           6.0010   -3.3889    0.0000 O.3     1  UNL1       -0.3405
      5 O           7.7331   -5.3889    0.0000 O.3     1  UNL1       -0.3378
      6 O           6.0010   -6.3889    0.0000 O.3     1  UNL1       -0.3426
      7 O           4.2690   -5.3889    0.0000 O.3     1  UNL1       -0.3865
      8 O          14.4461    6.5067    0.0000 O.3     1  UNL1       -0.3484
      9 O           8.5991   -3.8889    0.0000 O.3     1  UNL1       -0.3431
     10 O           4.2690   -2.3889    0.0000 O.3     1  UNL1       -0.3924
     11 O           5.1350   -7.8889    0.0000 O.3     1  UNL1       -0.3431
     12 O           9.4651   -6.3889    0.0000 O.3     1  UNL1       -0.3841
     13 O          15.9427    7.3785    0.0000 O.3     1  UNL1       -0.3405
     14 O          11.1972   -5.3889    0.0000 O.3     1  UNL1       -0.3864
     15 O          11.1972   -3.3889    0.0000 O.3     1  UNL1       -0.3866
     16 O           2.5369   -6.3889    0.0000 O.3     1  UNL1       -0.3890
     17 O           2.5369   -8.3889    0.0000 O.3     1  UNL1       -0.3866
     18 O          13.4394    8.2349    0.0000 O.3     1  UNL1       -0.3841
     19 O          14.4327    9.9708    0.0000 O.3     1  UNL1       -0.3864
     20 O          16.4327    9.9785    0.0000 O.3     1  UNL1       -0.3865
     21 O           5.1350   -9.8889    0.0000 O.3     1  UNL1       -0.3924
     22 O          17.9427    7.3862    0.0000 O.3     1  UNL1       -0.3924
     23 C           7.7624    2.8080    0.0000 C.3     1  UNL1       -0.0237
     24 C           8.6303    2.3113    0.0000 C.3     1  UNL1       -0.0296
     25 C           8.6342    1.3113    0.0000 C.3     1  UNL1       -0.0306
     26 C           7.7701    0.8080    0.0000 C.3     1  UNL1       -0.0285
     27 C           7.9678    3.7806    0.0000 C.3     1  UNL1       -0.0092
     28 C           6.8983    2.3046    0.0000 C.3     1  UNL1       -0.0467
     29 C           7.7580   -0.2336    0.0000 C.3     1  UNL1       -0.0078
     30 C           9.3647    2.9812    0.0000 C.3     1  UNL1       -0.0226
     31 C           6.9021    1.3046    0.0000 C.3     1  UNL1       -0.0486
     32 C           8.9561    3.8874    0.0000 C.3     1  UNL1        0.0655
     33 C           9.5461    0.8080    0.0000 C.3     1  UNL1       -0.0311
     34 C           6.8944    3.3046    0.0000 C.3     1  UNL1       -0.0590
     35 C           8.6581   -0.7579    0.0000 C.2     1  UNL1       -0.0648
     36 C           6.8081   -0.7579    0.0000 C.3     1  UNL1       -0.0413
     37 C           7.2971    4.5223    0.0000 C.3     1  UNL1       -0.0502
     38 C           9.5581   -0.2336    0.0000 C.2     1  UNL1       -0.0839
     39 C           6.8939    0.2698    0.0000 C.3     1  UNL1       -0.0556
     40 C           8.6706   -1.8428    0.0000 C.3     1  UNL1       -0.0047
     41 C           6.7956   -1.8428    0.0000 C.3     1  UNL1       -0.0254
     42 C           7.7331   -2.3889    0.0000 C.3     1  UNL1        0.0655
     43 C           7.6041    5.4740    0.0000 C.3     1  UNL1       -0.0649
     44 C          10.4528    4.7592    0.0000 C.3     1  UNL1        0.1672
     45 C          11.4528    4.7631    0.0000 C.3     1  UNL1        0.0014
     46 C          10.4566    3.7592    0.0000 C.3     1  UNL1       -0.0105
     47 C           6.8671   -3.8889    0.0000 C.3     1  UNL1        0.1886
     48 C          11.9494    5.6310    0.0000 C.3     1  UNL1       -0.0435
     49 C           6.8671   -4.8889    0.0000 C.3     1  UNL1        0.1410
     50 C          12.9494    5.6349    0.0000 C.3     1  UNL1       -0.0201
     51 C           9.5810    6.2559    0.0000 C.3     1  UNL1        0.0397
     52 C           6.0010   -5.3889    0.0000 C.3     1  UNL1        0.1208
     53 C           5.1350   -3.8889    0.0000 C.3     1  UNL1        0.1130
     54 C           5.1350   -4.8889    0.0000 C.3     1  UNL1        0.1123
     55 C          13.4461    6.5028    0.0000 C.3     1  UNL1        0.0533
     56 C          13.4528    4.7708    0.0000 C.3     1  UNL1       -0.0603
     57 C           4.2690   -3.3889    0.0000 C.3     1  UNL1        0.0730
     58 C           8.5991   -4.8889    0.0000 C.3     1  UNL1        0.1884
     59 C           5.1350   -6.8889    0.0000 C.3     1  UNL1        0.1627
     60 C           9.4651   -5.3889    0.0000 C.3     1  UNL1        0.1341
     61 C          10.3312   -4.8889    0.0000 C.3     1  UNL1        0.1140
     62 C           4.2690   -6.3889    0.0000 C.3     1  UNL1        0.0270
     63 C          14.9427    7.3746    0.0000 C.3     1  UNL1        0.1879
     64 C           9.4651   -3.3889    0.0000 C.3     1  UNL1        0.0873
     65 C          10.3312   -3.8889    0.0000 C.3     1  UNL1        0.1095
     66 C           3.4030   -6.8889    0.0000 C.3     1  UNL1        0.0882
     67 C           4.2690   -8.3889    0.0000 C.3     1  UNL1        0.1128
     68 C           3.4030   -7.8889    0.0000 C.3     1  UNL1        0.1095
     69 C          14.4394    8.2387    0.0000 C.3     1  UNL1        0.1341
     70 C           9.4651   -2.3889    0.0000 C.3     1  UNL1       -0.0361
     71 C          14.9361    9.1067    0.0000 C.3     1  UNL1        0.1141
     72 C          16.4394    8.2464    0.0000 C.3     1  UNL1        0.1130
     73 C          15.9360    9.1105    0.0000 C.3     1  UNL1        0.1119
     74 C           4.2690   -9.3889    0.0000 C.3     1  UNL1        0.0730
     75 C          17.4394    8.2503    0.0000 C.3     1  UNL1        0.0730
     76 H           9.4086    1.9696    0.0000 H       1  UNL1        0.0310
     77 H           9.3653    1.7448    0.0000 H       1  UNL1        0.0310
     78 H           8.5045    0.3801    0.0000 H       1  UNL1        0.0312
     79 H           7.3692    3.6191    0.0000 H       1  UNL1        0.0331
     80 H           6.6840    2.8864    0.0000 H       1  UNL1        0.0271
     81 H           6.2881    2.1946    0.0000 H       1  UNL1        0.0271
     82 H           9.7321    2.4818    0.0000 H       1  UNL1        0.0293
     83 H           9.9000    3.2941    0.0000 H       1  UNL1        0.0293
     84 H           6.2911    1.4100    0.0000 H       1  UNL1        0.0268
     85 H           6.6923    0.7212    0.0000 H       1  UNL1        0.0268
     86 H           8.6167    4.4063    0.0000 H       1  UNL1        0.0600
     87 H          10.1581    0.7090    0.0000 H       1  UNL1        0.0310
     88 H           9.7484    1.3940    0.0000 H       1  UNL1        0.0310
     89 H           7.2023    3.8428    0.0000 H       1  UNL1        0.0235
     90 H           6.3563    3.6126    0.0000 H       1  UNL1        0.0235
     91 H           6.5865    2.7665    0.0000 H       1  UNL1        0.0235
     92 H           6.6058   -0.1718    0.0000 H       1  UNL1        0.0274
     93 H           6.1961   -0.8569    0.0000 H       1  UNL1        0.0274
     94 H           6.7490    4.8122    0.0000 H       1  UNL1        0.0266
     95 H           6.9164    4.0329    0.0000 H       1  UNL1        0.0266
     96 H          10.0975   -0.5394    0.0000 H       1  UNL1        0.0572
     97 H           7.2060    0.8055    0.0000 H       1  UNL1        0.0238
     98 H           6.3582    0.5818    0.0000 H       1  UNL1        0.0238
     99 H           6.5818   -0.2660    0.0000 H       1  UNL1        0.0238
    100 H           8.8864   -2.4240    0.0000 H       1  UNL1        0.0335
    101 H           9.2802   -1.7296    0.0000 H       1  UNL1        0.0335
    102 H           6.1860   -1.7296    0.0000 H       1  UNL1        0.0290
    103 H           6.5798   -2.4240    0.0000 H       1  UNL1        0.0290
    104 H           8.2706   -2.6979    0.0000 H       1  UNL1        0.0600
    105 H           8.1942    5.2837    0.0000 H       1  UNL1        0.0230
    106 H           7.7944    6.0641    0.0000 H       1  UNL1        0.0230
    107 H           7.0140    5.6644    0.0000 H       1  UNL1        0.0230
    108 H          11.3475    4.1521    0.0000 H       1  UNL1        0.0317
    109 H          12.0362    4.5533    0.0000 H       1  UNL1        0.0317
    110 H           9.8366    3.7569    0.0000 H       1  UNL1        0.0281
    111 H          10.4590    3.1393    0.0000 H       1  UNL1        0.0281
    112 H          11.0766    3.7616    0.0000 H       1  UNL1        0.0281
    113 H           7.4040   -4.1989    0.0000 H       1  UNL1        0.0938
    114 H          12.0547    6.2420    0.0000 H       1  UNL1        0.0270
    115 H          11.3660    5.8408    0.0000 H       1  UNL1        0.0270
    116 H           6.8671   -5.5089    0.0000 H       1  UNL1        0.0675
    117 H          12.6415    5.0968    0.0000 H       1  UNL1        0.0320
    118 H           9.8889    6.7940    0.0000 H       1  UNL1        0.0525
    119 H           9.0428    6.5638    0.0000 H       1  UNL1        0.0525
    120 H           9.2730    5.7178    0.0000 H       1  UNL1        0.0525
    121 H           5.4641   -5.6989    0.0000 H       1  UNL1        0.0651
    122 H           5.1350   -3.2689    0.0000 H       1  UNL1        0.0647
    123 H           4.5981   -4.5789    0.0000 H       1  UNL1        0.0647
    124 H          13.5514    7.1138    0.0000 H       1  UNL1        0.0563
    125 H          12.8627    6.7126    0.0000 H       1  UNL1        0.0563
    126 H          12.9170    4.4587    0.0000 H       1  UNL1        0.0233
    127 H          13.7648    4.2351    0.0000 H       1  UNL1        0.0233
    128 H          13.9885    5.0829    0.0000 H       1  UNL1        0.0233
    129 H           3.6584   -3.2812    0.0000 H       1  UNL1        0.0584
    130 H           4.0569   -3.9715    0.0000 H       1  UNL1        0.0584
    131 H           8.5991   -5.5089    0.0000 H       1  UNL1        0.0938
    132 H           3.7320   -5.0789    0.0000 H       1  UNL1        0.2100
    133 H           5.1350   -6.2689    0.0000 H       1  UNL1        0.0911
    134 H          10.0021   -5.6989    0.0000 H       1  UNL1        0.0671
    135 H          10.8681   -4.5789    0.0000 H       1  UNL1        0.0648
    136 H           4.6675   -5.9140    0.0000 H       1  UNL1        0.0340
    137 H           3.8705   -5.9140    0.0000 H       1  UNL1        0.0340
    138 H           3.7320   -2.0789    0.0000 H       1  UNL1        0.2095
    139 H          14.3227    7.3723    0.0000 H       1  UNL1        0.0937
    140 H           8.9282   -3.0789    0.0000 H       1  UNL1        0.0621
    141 H          10.3312   -3.2689    0.0000 H       1  UNL1        0.0646
    142 H           3.4030   -6.2689    0.0000 H       1  UNL1        0.0621
    143 H           4.8059   -8.6989    0.0000 H       1  UNL1        0.0647
    144 H           3.4030   -8.5089    0.0000 H       1  UNL1        0.0646
    145 H          14.1273    8.7745    0.0000 H       1  UNL1        0.0671
    146 H          10.0021   -6.6989    0.0000 H       1  UNL1        0.2101
    147 H          10.0851   -2.3889    0.0000 H       1  UNL1        0.0255
    148 H           9.4651   -1.7689    0.0000 H       1  UNL1        0.0255
    149 H           8.8451   -2.3889    0.0000 H       1  UNL1        0.0255
    150 H          15.2440    9.6448    0.0000 H       1  UNL1        0.0648
    151 H          11.7341   -5.0789    0.0000 H       1  UNL1        0.2100
    152 H          16.7514    7.7107    0.0000 H       1  UNL1        0.0647
    153 H          16.5560    9.1129    0.0000 H       1  UNL1        0.0647
    154 H           3.6584   -9.2812    0.0000 H       1  UNL1        0.0584
    155 H           4.0569   -9.9715    0.0000 H       1  UNL1        0.0584
    156 H          11.7341   -3.6989    0.0000 H       1  UNL1        0.2100
    157 H           2.0000   -6.6989    0.0000 H       1  UNL1        0.2099
    158 H           2.5369   -9.0089    0.0000 H       1  UNL1        0.2100
    159 H          13.1273    8.7706    0.0000 H       1  UNL1        0.2101
    160 H          18.0212    8.4646    0.0000 H       1  UNL1        0.0584
    161 H          17.3294    8.8605    0.0000 H       1  UNL1        0.0584
    162 H          14.7406   10.5089    0.0000 H       1  UNL1        0.2100
    163 H          17.0527    9.9809    0.0000 H       1  UNL1        0.2100
    164 H           5.1350  -10.5089    0.0000 H       1  UNL1        0.2095
    165 H          18.5627    7.3886    0.0000 H       1  UNL1        0.2095
@<TRIPOS>BOND
     1    32     1    1
     2    44     1    1
     3    42     2    1
     4    47     2    1
     5     3    44    1
     6     3    51    1
     7     4    47    1
     8     4    53    1
     9     5    49    1
    10    58     5    1
    11    52     6    1
    12    59     6    1
    13    54     7    1
    14     7   132    1
    15     8    55    1
    16    63     8    1
    17     9    58    1
    18     9    64    1
    19    10    57    1
    20    10   138    1
    21    11    59    1
    22    11    67    1
    23    60    12    1
    24    12   146    1
    25    13    63    1
    26    13    72    1
    27    14    61    1
    28    14   151    1
    29    65    15    1
    30    15   156    1
    31    66    16    1
    32    16   157    1
    33    68    17    1
    34    17   158    1
    35    18    69    1
    36    18   159    1
    37    71    19    1
    38    19   162    1
    39    73    20    1
    40    20   163    1
    41    21    74    1
    42    21   164    1
    43    22    75    1
    44    22   165    1
    45    23    24    1
    46    23    27    1
    47    23    28    1
    48    23    34    1
    49    24    25    1
    50    24    30    1
    51    24    76    1
    52    25    26    1
    53    25    33    1
    54    25    77    1
    55    26    29    1
    56    26    31    1
    57    26    78    1
    58    27    32    1
    59    27    37    1
    60    27    79    1
    61    28    31    1
    62    28    80    1
    63    28    81    1
    64    29    35    1
    65    29    36    1
    66    29    39    1
    67    30    32    1
    68    30    82    1
    69    30    83    1
    70    31    84    1
    71    31    85    1
    72    32    86    1
    73    33    38    1
    74    33    87    1
    75    33    88    1
    76    34    89    1
    77    34    90    1
    78    34    91    1
    79    35    38    2
    80    35    40    1
    81    36    41    1
    82    36    92    1
    83    36    93    1
    84    37    43    1
    85    37    94    1
    86    37    95    1
    87    38    96    1
    88    39    97    1
    89    39    98    1
    90    39    99    1
    91    40    42    1
    92    40   100    1
    93    40   101    1
    94    41    42    1
    95    41   102    1
    96    41   103    1
    97    42   104    1
    98    43   105    1
    99    43   106    1
   100    43   107    1
   101    44    45    1
   102    44    46    1
   103    45    48    1
   104    45   108    1
   105    45   109    1
   106    46   110    1
   107    46   111    1
   108    46   112    1
   109    47    49    1
   110    47   113    1
   111    48    50    1
   112    48   114    1
   113    48   115    1
   114    49    52    1
   115    49   116    1
   116    50    55    1
   117    50    56    1
   118    50   117    1
   119    51   118    1
   120    51   119    1
   121    51   120    1
   122    52    54    1
   123    52   121    1
   124    53    54    1
   125    53    57    1
   126    53   122    1
   127    54   123    1
   128    55   124    1
   129    55   125    1
   130    56   126    1
   131    56   127    1
   132    56   128    1
   133    57   129    1
   134    57   130    1
   135    58    60    1
   136    58   131    1
   137    59    62    1
   138    59   133    1
   139    60    61    1
   140    60   134    1
   141    61    65    1
   142    61   135    1
   143    62    66    1
   144    62   136    1
   145    62   137    1
   146    63    69    1
   147    63   139    1
   148    64    65    1
   149    64    70    1
   150    64   140    1
   151    65   141    1
   152    66    68    1
   153    66   142    1
   154    67    68    1
   155    67    74    1
   156    67   143    1
   157    68   144    1
   158    69    71    1
   159    69   145    1
   160    70   147    1
   161    70   148    1
   162    70   149    1
   163    71    73    1
   164    71   150    1
   165    72    73    1
   166    72    75    1
   167    72   152    1
   168    73   153    1
   169    74   154    1
   170    74   155    1
   171    75   160    1
   172    75   161    1
