@<TRIPOS>MOLECULE
IMPHY010093
 107 108 0 0 0
SMALL
GASTEIGER

@<TRIPOS>ATOM
      1 O           7.7331    6.5950    0.0000 O.3     1  UNL1       -0.3405
      2 O           4.2690    5.5950    0.0000 O.3     1  UNL1       -0.3405
      3 O           6.0010    5.5950    0.0000 O.3     1  UNL1       -0.3460
      4 O           9.4651    6.5950    0.0000 O.3     1  UNL1       -0.3460
      5 O           6.0010    8.5950    0.0000 O.3     1  UNL1       -0.3865
      6 O           7.7331    9.5950    0.0000 O.3     1  UNL1       -0.3864
      7 O           9.4651    8.5950    0.0000 O.3     1  UNL1       -0.3841
      8 O           6.0010    3.5950    0.0000 O.3     1  UNL1       -0.3841
      9 O           4.2690    2.5950    0.0000 O.3     1  UNL1       -0.3864
     10 O           2.5369    3.5950    0.0000 O.3     1  UNL1       -0.3865
     11 O           2.5369    6.5950    0.0000 O.3     1  UNL1       -0.3924
     12 O          11.1972    5.5950    0.0000 O.3     1  UNL1       -0.3861
     13 O          11.1972    3.5950    0.0000 O.3     1  UNL1       -0.4619
     14 O          10.3312    2.0950    0.0000 O.2     1  UNL1       -0.2509
     15 C           6.8671    7.0950    0.0000 C.3     1  UNL1        0.1134
     16 C           6.8671    8.0950    0.0000 C.3     1  UNL1        0.1119
     17 C           7.7331    8.5950    0.0000 C.3     1  UNL1        0.1141
     18 C           8.5991    8.0950    0.0000 C.3     1  UNL1        0.1341
     19 C           5.1350    4.0950    0.0000 C.3     1  UNL1        0.1341
     20 C           5.1350    5.0950    0.0000 C.3     1  UNL1        0.1880
     21 C           4.2690    3.5950    0.0000 C.3     1  UNL1        0.1141
     22 C           3.4030    4.0950    0.0000 C.3     1  UNL1        0.1119
     23 C           8.5991    7.0950    0.0000 C.3     1  UNL1        0.1880
     24 C           3.4030    5.0950    0.0000 C.3     1  UNL1        0.1130
     25 C           6.0010    6.5950    0.0000 C.3     1  UNL1        0.0796
     26 C           2.5369    5.5950    0.0000 C.3     1  UNL1        0.0730
     27 C           9.4651    5.5950    0.0000 C.3     1  UNL1        0.0799
     28 C          10.3312    5.0950    0.0000 C.3     1  UNL1        0.1125
     29 C          10.3312    4.0950    0.0000 C.3     1  UNL1        0.1204
     30 C          12.9292    0.5950    0.0000 C.3     1  UNL1       -0.0526
     31 C          12.9292   -0.4050    0.0000 C.3     1  UNL1       -0.0530
     32 C          12.0632    1.0950    0.0000 C.3     1  UNL1       -0.0430
     33 C          13.7953   -0.9050    0.0000 C.3     1  UNL1       -0.0528
     34 C          12.0632    2.0950    0.0000 C.3     1  UNL1        0.0449
     35 C          13.7953   -1.9050    0.0000 C.3     1  UNL1       -0.0496
     36 C          17.2594   -6.9050    0.0000 C.3     1  UNL1       -0.0530
     37 C          16.3933   -6.4050    0.0000 C.3     1  UNL1       -0.0528
     38 C          11.1972    2.5950    0.0000 C.2     1  UNL1        0.3072
     39 C          17.2594   -7.9050    0.0000 C.3     1  UNL1       -0.0531
     40 C          16.3933   -5.4050    0.0000 C.3     1  UNL1       -0.0496
     41 C          14.6613   -2.4050    0.0000 C.3     1  UNL1       -0.0348
     42 C          15.5273   -4.9050    0.0000 C.3     1  UNL1       -0.0348
     43 C          18.1254   -8.4050    0.0000 C.3     1  UNL1       -0.0533
     44 C          14.6613   -3.4050    0.0000 C.2     1  UNL1       -0.0879
     45 C          15.5273   -3.9050    0.0000 C.2     1  UNL1       -0.0879
     46 C          18.1254   -9.4050    0.0000 C.3     1  UNL1       -0.0559
     47 C          18.9914   -9.9050    0.0000 C.3     1  UNL1       -0.0653
     48 H           6.8671    6.4750    0.0000 H       1  UNL1        0.0647
     49 H           6.3301    7.7850    0.0000 H       1  UNL1        0.0647
     50 H           7.1962    8.9050    0.0000 H       1  UNL1        0.0648
     51 H           8.5991    8.7150    0.0000 H       1  UNL1        0.0671
     52 H           5.1350    3.4750    0.0000 H       1  UNL1        0.0671
     53 H           5.1350    5.7150    0.0000 H       1  UNL1        0.0937
     54 H           3.7320    3.2850    0.0000 H       1  UNL1        0.0648
     55 H           2.8660    4.4050    0.0000 H       1  UNL1        0.0647
     56 H           8.5991    6.4750    0.0000 H       1  UNL1        0.0937
     57 H           3.4030    5.7150    0.0000 H       1  UNL1        0.0647
     58 H           5.7890    7.1776    0.0000 H       1  UNL1        0.0587
     59 H           5.3905    6.4873    0.0000 H       1  UNL1        0.0587
     60 H           1.9264    5.7027    0.0000 H       1  UNL1        0.0584
     61 H           2.3249    5.0124    0.0000 H       1  UNL1        0.0584
     62 H           6.0010    9.2150    0.0000 H       1  UNL1        0.2100
     63 H           8.2700    9.9050    0.0000 H       1  UNL1        0.2100
     64 H          10.0021    8.2850    0.0000 H       1  UNL1        0.2101
     65 H           6.5380    3.9050    0.0000 H       1  UNL1        0.2101
     66 H           3.7320    2.2850    0.0000 H       1  UNL1        0.2100
     67 H           2.0000    3.9050    0.0000 H       1  UNL1        0.2100
     68 H           8.8546    5.7027    0.0000 H       1  UNL1        0.0588
     69 H           9.2531    5.0124    0.0000 H       1  UNL1        0.0588
     70 H          10.3312    5.7150    0.0000 H       1  UNL1        0.0650
     71 H           2.0000    6.9050    0.0000 H       1  UNL1        0.2095
     72 H           9.7206    4.2027    0.0000 H       1  UNL1        0.0724
     73 H          10.1191    3.5124    0.0000 H       1  UNL1        0.0724
     74 H          11.7341    5.2850    0.0000 H       1  UNL1        0.2100
     75 H          13.5398    0.4873    0.0000 H       1  UNL1        0.0265
     76 H          13.1413    1.1776    0.0000 H       1  UNL1        0.0265
     77 H          12.3187   -0.2973    0.0000 H       1  UNL1        0.0265
     78 H          12.7172   -0.9876    0.0000 H       1  UNL1        0.0265
     79 H          11.4526    1.2027    0.0000 H       1  UNL1        0.0270
     80 H          11.8512    0.5124    0.0000 H       1  UNL1        0.0270
     81 H          14.4058   -1.0127    0.0000 H       1  UNL1        0.0265
     82 H          14.0073   -0.3224    0.0000 H       1  UNL1        0.0265
     83 H          12.6738    1.9873    0.0000 H       1  UNL1        0.0377
     84 H          12.2753    2.6776    0.0000 H       1  UNL1        0.0377
     85 H          13.1847   -1.7973    0.0000 H       1  UNL1        0.0268
     86 H          13.5832   -2.4876    0.0000 H       1  UNL1        0.0268
     87 H          17.8699   -7.0127    0.0000 H       1  UNL1        0.0265
     88 H          17.4714   -6.3224    0.0000 H       1  UNL1        0.0265
     89 H          15.7828   -6.2973    0.0000 H       1  UNL1        0.0265
     90 H          16.1813   -6.9876    0.0000 H       1  UNL1        0.0265
     91 H          16.6488   -7.7973    0.0000 H       1  UNL1        0.0265
     92 H          17.0473   -8.4876    0.0000 H       1  UNL1        0.0265
     93 H          17.0039   -5.5127    0.0000 H       1  UNL1        0.0268
     94 H          16.6054   -4.8224    0.0000 H       1  UNL1        0.0268
     95 H          15.2719   -2.5127    0.0000 H       1  UNL1        0.0307
     96 H          14.8733   -1.8224    0.0000 H       1  UNL1        0.0307
     97 H          18.7360   -8.5127    0.0000 H       1  UNL1        0.0265
     98 H          18.3374   -7.8224    0.0000 H       1  UNL1        0.0265
     99 H          14.9167   -4.7973    0.0000 H       1  UNL1        0.0307
    100 H          15.3153   -5.4876    0.0000 H       1  UNL1        0.0307
    101 H          14.1244   -3.7150    0.0000 H       1  UNL1        0.0569
    102 H          16.0643   -3.5950    0.0000 H       1  UNL1        0.0569
    103 H          17.5148   -9.2973    0.0000 H       1  UNL1        0.0263
    104 H          17.9133   -9.9876    0.0000 H       1  UNL1        0.0263
    105 H          18.6814  -10.4419    0.0000 H       1  UNL1        0.0230
    106 H          19.5284  -10.2150    0.0000 H       1  UNL1        0.0230
    107 H          19.3014   -9.3681    0.0000 H       1  UNL1        0.0230
@<TRIPOS>BOND
     1     1    15    1
     2     1    23    1
     3     2    20    1
     4     2    24    1
     5    20     3    1
     6     3    25    1
     7    23     4    1
     8     4    27    1
     9    16     5    1
    10     5    62    1
    11    17     6    1
    12     6    63    1
    13    18     7    1
    14     7    64    1
    15    19     8    1
    16     8    65    1
    17    21     9    1
    18     9    66    1
    19    22    10    1
    20    10    67    1
    21    11    26    1
    22    11    71    1
    23    28    12    1
    24    12    74    1
    25    13    29    1
    26    13    38    1
    27    14    38    2
    28    15    16    1
    29    15    25    1
    30    15    48    1
    31    16    17    1
    32    16    49    1
    33    17    18    1
    34    17    50    1
    35    18    23    1
    36    18    51    1
    37    19    20    1
    38    19    21    1
    39    19    52    1
    40    20    53    1
    41    21    22    1
    42    21    54    1
    43    22    24    1
    44    22    55    1
    45    23    56    1
    46    24    26    1
    47    24    57    1
    48    25    58    1
    49    25    59    1
    50    26    60    1
    51    26    61    1
    52    27    28    1
    53    27    68    1
    54    27    69    1
    55    28    29    1
    56    28    70    1
    57    29    72    1
    58    29    73    1
    59    30    31    1
    60    30    32    1
    61    30    75    1
    62    30    76    1
    63    31    33    1
    64    31    77    1
    65    31    78    1
    66    32    34    1
    67    32    79    1
    68    32    80    1
    69    33    35    1
    70    33    81    1
    71    33    82    1
    72    34    38    1
    73    34    83    1
    74    34    84    1
    75    35    41    1
    76    35    85    1
    77    35    86    1
    78    36    37    1
    79    36    39    1
    80    36    87    1
    81    36    88    1
    82    37    40    1
    83    37    89    1
    84    37    90    1
    85    39    43    1
    86    39    91    1
    87    39    92    1
    88    40    42    1
    89    40    93    1
    90    40    94    1
    91    41    44    1
    92    41    95    1
    93    41    96    1
    94    42    45    1
    95    42    99    1
    96    42   100    1
    97    43    46    1
    98    43    97    1
    99    43    98    1
   100    44    45    2
   101    44   101    1
   102    45   102    1
   103    46    47    1
   104    46   103    1
   105    46   104    1
   106    47   105    1
   107    47   106    1
   108    47   107    1
