@<TRIPOS>MOLECULE
IMPHY012821
 56 55 0 0 0
SMALL
GASTEIGER

@<TRIPOS>ATOM
      1 O           2.5369    4.6900    0.0000 O.3     1  UNL1       -0.3944
      2 C           7.7331    1.6900    0.0000 C.3     1  UNL1       -0.0530
      3 C           7.7331    0.6900    0.0000 C.3     1  UNL1       -0.0530
      4 C           6.8671    2.1900    0.0000 C.3     1  UNL1       -0.0528
      5 C           8.5991    0.1900    0.0000 C.3     1  UNL1       -0.0528
      6 C           6.8671    3.1900    0.0000 C.3     1  UNL1       -0.0496
      7 C           8.5991   -0.8100    0.0000 C.3     1  UNL1       -0.0496
      8 C           6.0010    3.6900    0.0000 C.3     1  UNL1       -0.0348
      9 C           9.4651   -1.3100    0.0000 C.3     1  UNL1       -0.0348
     10 C           6.0010    4.6900    0.0000 C.2     1  UNL1       -0.0876
     11 C           9.4651   -2.3100    0.0000 C.2     1  UNL1       -0.0879
     12 C           4.2690    4.6900    0.0000 C.3     1  UNL1       -0.0025
     13 C           5.1350    5.1900    0.0000 C.2     1  UNL1       -0.0829
     14 C          10.3312   -3.8100    0.0000 C.3     1  UNL1       -0.0348
     15 C          10.3312   -2.8100    0.0000 C.2     1  UNL1       -0.0879
     16 C          11.1972   -4.3100    0.0000 C.3     1  UNL1       -0.0499
     17 C          11.1972   -5.3100    0.0000 C.3     1  UNL1       -0.0556
     18 C           3.4030    5.1900    0.0000 C.3     1  UNL1        0.0502
     19 C           4.2690    3.6900    0.0000 C.3     1  UNL1       -0.0569
     20 C          12.0632   -5.8100    0.0000 C.3     1  UNL1       -0.0653
     21 H           8.3437    1.5823    0.0000 H       1  UNL1        0.0265
     22 H           7.9451    2.2726    0.0000 H       1  UNL1        0.0265
     23 H           7.1225    0.7977    0.0000 H       1  UNL1        0.0265
     24 H           7.5210    0.1074    0.0000 H       1  UNL1        0.0265
     25 H           6.2565    2.2977    0.0000 H       1  UNL1        0.0265
     26 H           6.6550    1.6074    0.0000 H       1  UNL1        0.0265
     27 H           9.2097    0.0823    0.0000 H       1  UNL1        0.0265
     28 H           8.8112    0.7726    0.0000 H       1  UNL1        0.0265
     29 H           7.4776    3.0823    0.0000 H       1  UNL1        0.0268
     30 H           7.0791    3.7726    0.0000 H       1  UNL1        0.0268
     31 H           7.9885   -0.7023    0.0000 H       1  UNL1        0.0268
     32 H           8.3871   -1.3926    0.0000 H       1  UNL1        0.0268
     33 H           5.3905    3.7977    0.0000 H       1  UNL1        0.0307
     34 H           5.7890    3.1074    0.0000 H       1  UNL1        0.0307
     35 H          10.0757   -1.4177    0.0000 H       1  UNL1        0.0307
     36 H           9.6772   -0.7274    0.0000 H       1  UNL1        0.0307
     37 H           6.5380    5.0000    0.0000 H       1  UNL1        0.0569
     38 H           8.9282   -2.6200    0.0000 H       1  UNL1        0.0569
     39 H           4.8059    4.3800    0.0000 H       1  UNL1        0.0362
     40 H           5.1350    5.8100    0.0000 H       1  UNL1        0.0572
     41 H           9.7206   -3.7023    0.0000 H       1  UNL1        0.0307
     42 H          10.1191   -4.3926    0.0000 H       1  UNL1        0.0307
     43 H          10.8681   -2.5000    0.0000 H       1  UNL1        0.0569
     44 H          11.8078   -4.4177    0.0000 H       1  UNL1        0.0268
     45 H          11.4092   -3.7274    0.0000 H       1  UNL1        0.0268
     46 H          10.5866   -5.2023    0.0000 H       1  UNL1        0.0263
     47 H          10.9851   -5.8926    0.0000 H       1  UNL1        0.0263
     48 H           3.8015    5.6650    0.0000 H       1  UNL1        0.0563
     49 H           3.0044    5.6650    0.0000 H       1  UNL1        0.0563
     50 H           3.6490    3.6900    0.0000 H       1  UNL1        0.0236
     51 H           4.2690    3.0700    0.0000 H       1  UNL1        0.0236
     52 H           4.8890    3.6900    0.0000 H       1  UNL1        0.0236
     53 H          11.7532   -6.3469    0.0000 H       1  UNL1        0.0230
     54 H          12.6002   -6.1200    0.0000 H       1  UNL1        0.0230
     55 H          12.3732   -5.2731    0.0000 H       1  UNL1        0.0230
     56 H           2.0000    5.0000    0.0000 H       1  UNL1        0.2094
@<TRIPOS>BOND
     1     1    18    1
     2     1    56    1
     3     2     3    1
     4     2     4    1
     5     2    21    1
     6     2    22    1
     7     3     5    1
     8     3    23    1
     9     3    24    1
    10     4     6    1
    11     4    25    1
    12     4    26    1
    13     5     7    1
    14     5    27    1
    15     5    28    1
    16     6     8    1
    17     6    29    1
    18     6    30    1
    19     7     9    1
    20     7    31    1
    21     7    32    1
    22     8    10    1
    23     8    33    1
    24     8    34    1
    25     9    11    1
    26     9    35    1
    27     9    36    1
    28    10    13    2
    29    10    37    1
    30    11    15    2
    31    11    38    1
    32    12    13    1
    33    12    18    1
    34    12    19    1
    35    12    39    1
    36    13    40    1
    37    14    15    1
    38    14    16    1
    39    14    41    1
    40    14    42    1
    41    15    43    1
    42    16    17    1
    43    16    44    1
    44    16    45    1
    45    17    20    1
    46    17    46    1
    47    17    47    1
    48    18    48    1
    49    18    49    1
    50    19    50    1
    51    19    51    1
    52    19    52    1
    53    20    53    1
    54    20    54    1
    55    20    55    1
