@<TRIPOS>MOLECULE
IMPHY013831
 18 19 0 0 0
SMALL
GASTEIGER

@<TRIPOS>ATOM
      1 O           3.7320    1.8100    0.0000 O.2     1  UNL1       -0.2652
      2 O           2.0000   -1.1900    0.0000 O.2     1  UNL1       -0.2464
      3 N           2.8660    0.3100    0.0000 N.ar    1  UNL1       -0.2624
      4 N           3.7320   -1.1900    0.0000 N.ar    1  UNL1       -0.2906
      5 N           5.5443    0.6147    0.0000 N.ar    1  UNL1       -0.3389
      6 N           5.5443   -0.9947    0.0000 N.ar    1  UNL1       -0.2181
      7 C           4.5981    0.3100    0.0000 C.ar    1  UNL1        0.1487
      8 C           4.5981   -0.6900    0.0000 C.ar    1  UNL1        0.1653
      9 C           3.7320    0.8100    0.0000 C.ar    1  UNL1        0.2820
     10 C           2.8660   -0.6900    0.0000 C.ar    1  UNL1        0.3307
     11 C           2.0000    0.8100    0.0000 C.3     1  UNL1        0.0196
     12 C           6.1279   -0.1900    0.0000 C.ar    1  UNL1        0.0963
     13 H           3.7320   -1.8100    0.0000 H       1  UNL1        0.1719
     14 H           5.7369    1.2040    0.0000 H       1  UNL1        0.1670
     15 H           2.3100    1.3469    0.0000 H       1  UNL1        0.0458
     16 H           1.4631    1.1200    0.0000 H       1  UNL1        0.0458
     17 H           1.6900    0.2731    0.0000 H       1  UNL1        0.0458
     18 H           6.7479   -0.1900    0.0000 H       1  UNL1        0.1027
@<TRIPOS>BOND
     1     1     9    2
     2     2    10    2
     3     3     9   ar
     4     3    10   ar
     5     3    11    1
     6     4     8   ar
     7     4    10   ar
     8     4    13    1
     9     5     7   ar
    10     5    12   ar
    11     5    14    1
    12     6     8   ar
    13     6    12   ar
    14     7     8   ar
    15     7     9   ar
    16    11    15    1
    17    11    16    1
    18    11    17    1
    19    12    18    1
