@<TRIPOS>MOLECULE
IMPHY010386
 39 42 0 0 0
SMALL
GASTEIGER

@<TRIPOS>ATOM
      1 S           3.5228    1.6284    0.0000 S.2     1  UNL1       -0.0735
      2 O           2.0000   -1.3435    0.0000 O.2     1  UNL1       -0.2651
      3 N           3.7320   -1.3435    0.0000 N.ar    1  UNL1       -0.1850
      4 N           4.5981    0.1565    0.0000 N.ar    1  UNL1       -0.2280
      5 N           3.7320   -2.3435    0.0000 N.2     1  UNL1       -0.1702
      6 C           2.8660    0.1565    0.0000 C.ar    1  UNL1        0.0741
      7 C           2.5341    1.7314    0.0000 C.ar    1  UNL1       -0.0077
      8 C           2.1290    0.8236    0.0000 C.ar    1  UNL1       -0.0370
      9 C           3.7320    0.6565    0.0000 C.ar    1  UNL1        0.1154
     10 C           2.0341    2.5974    0.0000 C.3     1  UNL1       -0.0242
     11 C           2.8660   -0.8435    0.0000 C.ar    1  UNL1        0.2824
     12 C           7.1962   -2.3435    0.0000 C.ar    1  UNL1       -0.0173
     13 C           7.1962   -1.3435    0.0000 C.ar    1  UNL1       -0.0178
     14 C           5.4641   -2.3435    0.0000 C.ar    1  UNL1       -0.0047
     15 C           6.3301   -2.8435    0.0000 C.ar    1  UNL1       -0.0454
     16 C           6.3301   -0.8435    0.0000 C.ar    1  UNL1       -0.0534
     17 C           2.5341    3.4635    0.0000 C.3     1  UNL1       -0.0608
     18 C           5.4641   -1.3435    0.0000 C.ar    1  UNL1       -0.0525
     19 C           4.5981   -0.8435    0.0000 C.ar    1  UNL1        0.1225
     20 C           8.0901   -2.8781    0.0000 C.ar    1  UNL1       -0.0540
     21 C           8.0901   -0.8088    0.0000 C.ar    1  UNL1       -0.0540
     22 C           4.5981   -2.8435    0.0000 C.2     1  UNL1        0.0556
     23 C           8.9962   -2.3643    0.0000 C.ar    1  UNL1       -0.0612
     24 C           8.9962   -1.3227    0.0000 C.ar    1  UNL1       -0.0612
     25 H           1.5223    0.6958    0.0000 H       1  UNL1        0.0634
     26 H           1.5592    2.9960    0.0000 H       1  UNL1        0.0316
     27 H           1.5592    2.1989    0.0000 H       1  UNL1        0.0316
     28 H           6.3301   -3.4635    0.0000 H       1  UNL1        0.0630
     29 H           6.3301   -0.2235    0.0000 H       1  UNL1        0.0624
     30 H           3.0711    3.1535    0.0000 H       1  UNL1        0.0233
     31 H           2.8441    4.0004    0.0000 H       1  UNL1        0.0233
     32 H           1.9972    3.7735    0.0000 H       1  UNL1        0.0233
     33 H           4.9272   -1.0335    0.0000 H       1  UNL1        0.0624
     34 H           5.1350   -1.1535    0.0000 H       1  UNL1        0.1049
     35 H           8.0829   -3.4981    0.0000 H       1  UNL1        0.0624
     36 H           8.0829   -0.1888    0.0000 H       1  UNL1        0.0624
     37 H           4.5981   -3.4635    0.0000 H       1  UNL1        0.0853
     38 H           9.5319   -2.6763    0.0000 H       1  UNL1        0.0618
     39 H           9.5319   -1.0106    0.0000 H       1  UNL1        0.0618
@<TRIPOS>BOND
     1     1     7   ar
     2     1     9   ar
     3     2    11    2
     4     3     5    1
     5     3    11   ar
     6     3    19   ar
     7     4     9   ar
     8     4    19   ar
     9     5    22    2
    10     6     8   ar
    11     6     9   ar
    12     6    11   ar
    13     7     8   ar
    14     7    10    1
    15     8    25    1
    16    10    17    1
    17    10    26    1
    18    10    27    1
    19    12    13   ar
    20    12    15   ar
    21    12    20   ar
    22    13    16   ar
    23    13    21   ar
    24    14    15   ar
    25    14    18   ar
    26    14    22    1
    27    15    28    1
    28    16    18   ar
    29    16    29    1
    30    17    30    1
    31    17    31    1
    32    17    32    1
    33    18    33    1
    34    19    34    1
    35    20    23   ar
    36    20    35    1
    37    21    24   ar
    38    21    36    1
    39    22    37    1
    40    23    24   ar
    41    23    38    1
    42    24    39    1
