@<TRIPOS>MOLECULE
IMPHY015407
 16 16 0 0 0
SMALL
GASTEIGER

@<TRIPOS>ATOM
      1 O           3.7601   -0.7694    0.0000 O.3     1  UNL1       -0.4541
      2 O           2.0000   -0.4907    0.0000 O.2     1  UNL1       -0.2456
      3 C           4.5691   -0.1816    0.0000 C.3     1  UNL1        0.1218
      4 C           5.5202   -0.4907    0.0000 C.3     1  UNL1       -0.0148
      5 C           4.2601    0.7694    0.0000 C.2     1  UNL1       -0.0372
      6 C           6.2633    0.1785    0.0000 C.3     1  UNL1       -0.0616
      7 C           3.2601    0.7694    0.0000 C.2     1  UNL1        0.0220
      8 C           2.9511   -0.1816    0.0000 C.2     1  UNL1        0.3323
      9 H           4.6661   -0.7940    0.0000 H       1  UNL1        0.0779
     10 H           5.2291   -1.0381    0.0000 H       1  UNL1        0.0301
     11 H           6.0087   -0.8724    0.0000 H       1  UNL1        0.0301
     12 H           4.6245    1.2710    0.0000 H       1  UNL1        0.0611
     13 H           6.6782   -0.2823    0.0000 H       1  UNL1        0.0231
     14 H           6.7240    0.5933    0.0000 H       1  UNL1        0.0231
     15 H           5.8484    0.6392    0.0000 H       1  UNL1        0.0231
     16 H           2.8956    1.2710    0.0000 H       1  UNL1        0.0687
@<TRIPOS>BOND
     1     1     3    1
     2     1     8    1
     3     2     8    2
     4     3     4    1
     5     3     5    1
     6     3     9    1
     7     4     6    1
     8     4    10    1
     9     4    11    1
    10     5     7    2
    11     5    12    1
    12     6    13    1
    13     6    14    1
    14     6    15    1
    15     7     8    1
    16     7    16    1
