@<TRIPOS>MOLECULE
IMPHY013036
 51 54 0 0 0
SMALL
GASTEIGER

@<TRIPOS>ATOM
      1 O           8.7180    0.1912    0.0000 O.3     1  UNL1       -0.3869
      2 O           2.5390    1.0145    0.0000 O.3     1  UNL1       -0.3917
      3 O           3.4883   -2.6216    0.0000 O.3     1  UNL1       -0.4804
      4 O           5.2203   -2.6062    0.0000 O.2     1  UNL1       -0.2507
      5 C           7.0525    0.4977    0.0000 C.3     1  UNL1        0.0044
      6 C           6.1840    0.9934    0.0000 C.3     1  UNL1       -0.0269
      7 C           5.2766    0.4820    0.0000 C.3     1  UNL1       -0.0227
      8 C           5.2737   -0.5596    0.0000 C.3     1  UNL1       -0.0223
      9 C           7.0280    1.6791    0.0000 C.3     1  UNL1       -0.0378
     10 C           7.0738   -0.5437    0.0000 C.3     1  UNL1       -0.0441
     11 C           7.7041    2.6482    0.0000 C.3     1  UNL1       -0.0171
     12 C           7.9816    0.8677    0.0000 C.3     1  UNL1        0.0822
     13 C           6.0300    1.9815    0.0000 C.3     1  UNL1       -0.0486
     14 C           6.1784   -1.0759    0.0000 C.3     1  UNL1       -0.0483
     15 C           4.3469    1.0415    0.0000 C.3     1  UNL1       -0.0209
     16 C           6.7066    2.7179    0.0000 C.3     1  UNL1       -0.0461
     17 C           4.3410   -1.1140    0.0000 C.3     1  UNL1        0.0619
     18 C           8.2716    1.8248    0.0000 C.2     1  UNL1       -0.0449
     19 C           4.9371    1.4227    0.0000 C.3     1  UNL1       -0.0589
     20 C           3.4017    0.5088    0.0000 C.3     1  UNL1        0.0565
     21 C           3.3987   -0.5762    0.0000 C.3     1  UNL1       -0.0136
     22 C           4.3499   -2.1139    0.0000 C.2     1  UNL1        0.3082
     23 C           9.2596    1.9787    0.0000 C.2     1  UNL1       -0.0967
     24 H           5.4458    1.4148    0.0000 H       1  UNL1        0.0312
     25 H           5.2812   -1.4096    0.0000 H       1  UNL1        0.0314
     26 H           6.6538    2.1734    0.0000 H       1  UNL1        0.0277
     27 H           6.4424    1.4756    0.0000 H       1  UNL1        0.0277
     28 H           7.2947   -1.1230    0.0000 H       1  UNL1        0.0272
     29 H           7.6824   -0.4251    0.0000 H       1  UNL1        0.0272
     30 H           7.9506    3.4616    0.0000 H       1  UNL1        0.0347
     31 H           8.5796    1.0312    0.0000 H       1  UNL1        0.0646
     32 H           5.6782    2.4920    0.0000 H       1  UNL1        0.0268
     33 H           5.4540    1.7521    0.0000 H       1  UNL1        0.0268
     34 H           5.7835   -1.5538    0.0000 H       1  UNL1        0.0268
     35 H           6.5817   -1.5468    0.0000 H       1  UNL1        0.0268
     36 H           4.7528    1.5102    0.0000 H       1  UNL1        0.0295
     37 H           3.9546    1.5216    0.0000 H       1  UNL1        0.0295
     38 H           6.8864    3.3113    0.0000 H       1  UNL1        0.0271
     39 H           6.1681    3.0253    0.0000 H       1  UNL1        0.0271
     40 H           4.8813   -1.4182    0.0000 H       1  UNL1        0.0417
     41 H           5.5203    1.6331    0.0000 H       1  UNL1        0.0235
     42 H           4.7266    2.0058    0.0000 H       1  UNL1        0.0235
     43 H           4.3539    1.2122    0.0000 H       1  UNL1        0.0235
     44 H           2.8633    0.2013    0.0000 H       1  UNL1        0.0593
     45 H           2.7882   -0.4684    0.0000 H       1  UNL1        0.0298
     46 H           3.1881   -1.1593    0.0000 H       1  UNL1        0.0298
     47 H           9.3095    0.3769    0.0000 H       1  UNL1        0.2102
     48 H           9.6486    1.4959    0.0000 H       1  UNL1        0.0535
     49 H           9.4833    2.5570    0.0000 H       1  UNL1        0.0535
     50 H           2.0000    0.7081    0.0000 H       1  UNL1        0.2098
     51 H           3.4938   -3.2415    0.0000 H       1  UNL1        0.2951
@<TRIPOS>BOND
     1    12     1    1
     2     1    47    1
     3    20     2    1
     4     2    50    1
     5     3    22    1
     6     3    51    1
     7     4    22    2
     8     5     6    1
     9     5     9    1
    10     5    10    1
    11     5    12    1
    12     6     7    1
    13     6    13    1
    14     6    24    1
    15     7     8    1
    16     7    15    1
    17     7    19    1
    18     8    14    1
    19     8    17    1
    20     8    25    1
    21     9    11    1
    22     9    26    1
    23     9    27    1
    24    10    14    1
    25    10    28    1
    26    10    29    1
    27    11    16    1
    28    11    18    1
    29    11    30    1
    30    12    18    1
    31    12    31    1
    32    13    16    1
    33    13    32    1
    34    13    33    1
    35    14    34    1
    36    14    35    1
    37    15    20    1
    38    15    36    1
    39    15    37    1
    40    16    38    1
    41    16    39    1
    42    17    21    1
    43    17    22    1
    44    17    40    1
    45    18    23    2
    46    19    41    1
    47    19    42    1
    48    19    43    1
    49    20    21    1
    50    20    44    1
    51    21    45    1
    52    21    46    1
    53    23    48    1
    54    23    49    1
