@<TRIPOS>MOLECULE
IMPHY017709
 16 16 0 0 0
SMALL
GASTEIGER

@<TRIPOS>ATOM
      1 O           2.8090   -0.7694    0.0000 O.3     1  UNL1       -0.3768
      2 C           3.6180   -0.1816    0.0000 C.3     1  UNL1        0.0560
      3 C           3.3090    0.7694    0.0000 C.3     1  UNL1       -0.0248
      4 C           2.3090    0.7694    0.0000 C.3     1  UNL1       -0.0271
      5 C           2.0000   -0.1816    0.0000 C.3     1  UNL1        0.0481
      6 C           4.5691   -0.4907    0.0000 C.3     1  UNL1       -0.0387
      7 H           3.7150   -0.7940    0.0000 H       1  UNL1        0.0593
      8 H           3.9155    0.8983    0.0000 H       1  UNL1        0.0291
      9 H           3.2442    1.3860    0.0000 H       1  UNL1        0.0291
     10 H           2.3738    1.3860    0.0000 H       1  UNL1        0.0288
     11 H           1.7026    0.8983    0.0000 H       1  UNL1        0.0288
     12 H           1.4336    0.0705    0.0000 H       1  UNL1        0.0560
     13 H           1.6900   -0.7186    0.0000 H       1  UNL1        0.0560
     14 H           4.3775   -1.0803    0.0000 H       1  UNL1        0.0254
     15 H           5.1588   -0.6822    0.0000 H       1  UNL1        0.0254
     16 H           4.7607    0.0990    0.0000 H       1  UNL1        0.0254
@<TRIPOS>BOND
     1     1     2    1
     2     1     5    1
     3     2     3    1
     4     2     6    1
     5     2     7    1
     6     3     4    1
     7     3     8    1
     8     3     9    1
     9     4     5    1
    10     4    10    1
    11     4    11    1
    12     5    12    1
    13     5    13    1
    14     6    14    1
    15     6    15    1
    16     6    16    1
