@<TRIPOS>MOLECULE
IMPHY016869
 47 46 0 0 0
SMALL
GASTEIGER

@<TRIPOS>ATOM
      1 O          11.5263    0.2500    0.0000 O.3     1  UNL1       -0.4645
      2 O          12.3923   -1.2500    0.0000 O.2     1  UNL1       -0.2506
      3 C           6.3301    0.2500    0.0000 C.3     1  UNL1       -0.0531
      4 C           7.1962   -0.2500    0.0000 C.3     1  UNL1       -0.0531
      5 C           5.4641   -0.2500    0.0000 C.3     1  UNL1       -0.0531
      6 C           8.0622    0.2500    0.0000 C.3     1  UNL1       -0.0530
      7 C           4.5981    0.2500    0.0000 C.3     1  UNL1       -0.0531
      8 C           8.9282   -0.2500    0.0000 C.3     1  UNL1       -0.0500
      9 C           3.7320   -0.2500    0.0000 C.3     1  UNL1       -0.0533
     10 C           9.7942    0.2500    0.0000 C.3     1  UNL1       -0.0185
     11 C           2.8660    0.2500    0.0000 C.3     1  UNL1       -0.0559
     12 C          10.6603   -0.2500    0.0000 C.3     1  UNL1        0.0925
     13 C           2.0000   -0.2500    0.0000 C.3     1  UNL1       -0.0653
     14 C          13.2583    0.2500    0.0000 C.3     1  UNL1        0.0508
     15 C          12.3923   -0.2500    0.0000 C.2     1  UNL1        0.3097
     16 C          14.1244   -0.2500    0.0000 C.3     1  UNL1       -0.0525
     17 C          13.2583    1.2500    0.0000 C.3     1  UNL1       -0.0525
     18 H           6.7287    0.7249    0.0000 H       1  UNL1        0.0265
     19 H           5.9316    0.7249    0.0000 H       1  UNL1        0.0265
     20 H           6.7976   -0.7249    0.0000 H       1  UNL1        0.0265
     21 H           7.5947   -0.7249    0.0000 H       1  UNL1        0.0265
     22 H           5.0656   -0.7249    0.0000 H       1  UNL1        0.0265
     23 H           5.8626   -0.7249    0.0000 H       1  UNL1        0.0265
     24 H           8.4607    0.7249    0.0000 H       1  UNL1        0.0265
     25 H           7.6636    0.7249    0.0000 H       1  UNL1        0.0265
     26 H           4.9966    0.7249    0.0000 H       1  UNL1        0.0265
     27 H           4.1996    0.7249    0.0000 H       1  UNL1        0.0265
     28 H           8.5297   -0.7249    0.0000 H       1  UNL1        0.0266
     29 H           9.3267   -0.7249    0.0000 H       1  UNL1        0.0266
     30 H           3.3335   -0.7249    0.0000 H       1  UNL1        0.0265
     31 H           4.1306   -0.7249    0.0000 H       1  UNL1        0.0265
     32 H          10.1928    0.7249    0.0000 H       1  UNL1        0.0298
     33 H           9.3957    0.7249    0.0000 H       1  UNL1        0.0298
     34 H           3.2646    0.7249    0.0000 H       1  UNL1        0.0263
     35 H           2.4675    0.7249    0.0000 H       1  UNL1        0.0263
     36 H          10.2617   -0.7249    0.0000 H       1  UNL1        0.0697
     37 H          11.0588   -0.7249    0.0000 H       1  UNL1        0.0697
     38 H           1.6900    0.2869    0.0000 H       1  UNL1        0.0230
     39 H           1.4631   -0.5600    0.0000 H       1  UNL1        0.0230
     40 H           2.3100   -0.7869    0.0000 H       1  UNL1        0.0230
     41 H          13.7953    0.5600    0.0000 H       1  UNL1        0.0408
     42 H          13.8144   -0.7869    0.0000 H       1  UNL1        0.0237
     43 H          14.6613   -0.5600    0.0000 H       1  UNL1        0.0237
     44 H          14.4344    0.2869    0.0000 H       1  UNL1        0.0237
     45 H          13.8783    1.2500    0.0000 H       1  UNL1        0.0237
     46 H          13.2583    1.8700    0.0000 H       1  UNL1        0.0237
     47 H          12.6383    1.2500    0.0000 H       1  UNL1        0.0237
@<TRIPOS>BOND
     1     1    12    1
     2     1    15    1
     3     2    15    2
     4     3     4    1
     5     3     5    1
     6     3    18    1
     7     3    19    1
     8     4     6    1
     9     4    20    1
    10     4    21    1
    11     5     7    1
    12     5    22    1
    13     5    23    1
    14     6     8    1
    15     6    24    1
    16     6    25    1
    17     7     9    1
    18     7    26    1
    19     7    27    1
    20     8    10    1
    21     8    28    1
    22     8    29    1
    23     9    11    1
    24     9    30    1
    25     9    31    1
    26    10    12    1
    27    10    32    1
    28    10    33    1
    29    11    13    1
    30    11    34    1
    31    11    35    1
    32    12    36    1
    33    12    37    1
    34    13    38    1
    35    13    39    1
    36    13    40    1
    37    14    15    1
    38    14    16    1
    39    14    17    1
    40    14    41    1
    41    16    42    1
    42    16    43    1
    43    16    44    1
    44    17    45    1
    45    17    46    1
    46    17    47    1
