@<TRIPOS>MOLECULE
IMPHY002195
 110 117 0 0 0
SMALL
GASTEIGER

@<TRIPOS>ATOM
      1 O          10.8604   -2.5560    0.0000 O.3     1  UNL1       -0.3448
      2 O           9.0743   -3.4233    0.0000 O.3     1  UNL1       -0.3480
      3 O           7.7331    2.5926    0.0000 O.3     1  UNL1       -0.3445
      4 O           9.5646    5.7091    0.0000 O.3     1  UNL1       -0.3914
      5 O           6.8671    4.0926    0.0000 O.3     1  UNL1       -0.3461
      6 O           6.0010    1.5926    0.0000 O.3     1  UNL1       -0.3378
      7 O           4.2690    2.5926    0.0000 O.3     1  UNL1       -0.3864
      8 O           4.2690    4.5926    0.0000 O.3     1  UNL1       -0.3869
      9 O           4.2690    1.5926    0.0000 O.3     1  UNL1       -0.3431
     10 O           6.0010   -0.4074    0.0000 O.3     1  UNL1       -0.3841
     11 O           4.2690   -1.4074    0.0000 O.3     1  UNL1       -0.3864
     12 O           2.5369   -0.4074    0.0000 O.3     1  UNL1       -0.3866
     13 C           9.4983   -0.4875    0.0000 C.3     1  UNL1       -0.0233
     14 C          10.3738   -0.0043    0.0000 C.3     1  UNL1       -0.0295
     15 C           9.6887   -1.4632    0.0000 C.3     1  UNL1       -0.0015
     16 C          10.3930    0.9955    0.0000 C.3     1  UNL1       -0.0305
     17 C          10.6753   -1.5853    0.0000 C.3     1  UNL1        0.0660
     18 C           9.5368    1.5121    0.0000 C.3     1  UNL1       -0.0262
     19 C          11.0978   -0.6855    0.0000 C.3     1  UNL1       -0.0226
     20 C           8.6420    0.0291    0.0000 C.3     1  UNL1       -0.0467
     21 C           9.2726   -2.3595    0.0000 C.3     1  UNL1        0.0160
     22 C           8.6613    1.0289    0.0000 C.3     1  UNL1       -0.0486
     23 C           9.5408    2.5538    0.0000 C.3     1  UNL1        0.0184
     24 C           9.9952   -3.0335    0.0000 C.3     1  UNL1        0.1732
     25 C           8.6228   -0.9707    0.0000 C.3     1  UNL1       -0.0590
     26 C          11.3126    1.4847    0.0000 C.3     1  UNL1       -0.0311
     27 C          10.4489    3.0641    0.0000 C.2     1  UNL1       -0.0624
     28 C           8.5991    3.0926    0.0000 C.3     1  UNL1        0.0734
     29 C           8.2911   -2.5510    0.0000 C.3     1  UNL1       -0.0572
     30 C          11.3407    2.5260    0.0000 C.2     1  UNL1       -0.0838
     31 C          10.7933   -3.6360    0.0000 C.3     1  UNL1        0.0020
     32 C           8.6691    2.0638    0.0000 C.3     1  UNL1       -0.0532
     33 C          10.4781    4.1487    0.0000 C.3     1  UNL1       -0.0049
     34 C           8.6033    4.1776    0.0000 C.3     1  UNL1        0.0007
     35 C           9.5491    4.7092    0.0000 C.3     1  UNL1        0.0613
     36 C          10.6705   -4.6285    0.0000 C.3     1  UNL1       -0.0435
     37 C           9.7496   -5.0183    0.0000 C.3     1  UNL1       -0.0201
     38 C           8.9515   -4.4158    0.0000 C.3     1  UNL1        0.0535
     39 C           6.8671    3.0926    0.0000 C.3     1  UNL1        0.1882
     40 C           9.6268   -6.0108    0.0000 C.3     1  UNL1       -0.0603
     41 C           6.0010    2.5926    0.0000 C.3     1  UNL1        0.1406
     42 C           5.1350    3.0926    0.0000 C.3     1  UNL1        0.1141
     43 C           6.0010    4.5926    0.0000 C.3     1  UNL1        0.0792
     44 C           5.1350    4.0926    0.0000 C.3     1  UNL1        0.1069
     45 C           5.1350    1.0926    0.0000 C.3     1  UNL1        0.1884
     46 C           5.1350    0.0926    0.0000 C.3     1  UNL1        0.1341
     47 C           4.2690   -0.4074    0.0000 C.3     1  UNL1        0.1140
     48 C           3.4030    1.0926    0.0000 C.3     1  UNL1        0.0873
     49 C           3.4030    0.0926    0.0000 C.3     1  UNL1        0.1095
     50 C           2.5369    1.5926    0.0000 C.3     1  UNL1       -0.0361
     51 H          11.1572    0.3254    0.0000 H       1  UNL1        0.0310
     52 H           8.8449   -1.3606    0.0000 H       1  UNL1        0.0335
     53 H          11.1174    0.5508    0.0000 H       1  UNL1        0.0310
     54 H          11.5186   -1.6915    0.0000 H       1  UNL1        0.0600
     55 H          10.2778    1.9286    0.0000 H       1  UNL1        0.0313
     56 H          11.6282   -1.0065    0.0000 H       1  UNL1        0.0293
     57 H          11.4728   -0.1917    0.0000 H       1  UNL1        0.0293
     58 H           8.0336    0.1485    0.0000 H       1  UNL1        0.0271
     59 H           8.4188   -0.5493    0.0000 H       1  UNL1        0.0271
     60 H           8.8902   -1.8714    0.0000 H       1  UNL1        0.0354
     61 H           8.4605    1.6155    0.0000 H       1  UNL1        0.0268
     62 H           8.0488    0.9330    0.0000 H       1  UNL1        0.0268
     63 H           8.3232   -0.4279    0.0000 H       1  UNL1        0.0235
     64 H           8.0800   -1.2703    0.0000 H       1  UNL1        0.0235
     65 H           8.9224   -1.5135    0.0000 H       1  UNL1        0.0235
     66 H          11.5059    0.8956    0.0000 H       1  UNL1        0.0310
     67 H          11.9261    1.5743    0.0000 H       1  UNL1        0.0310
     68 H           8.0628    3.4036    0.0000 H       1  UNL1        0.0606
     69 H           8.1723   -1.9425    0.0000 H       1  UNL1        0.0234
     70 H           7.6826   -2.6698    0.0000 H       1  UNL1        0.0234
     71 H           8.4098   -3.1596    0.0000 H       1  UNL1        0.0234
     72 H          11.8847    2.8235    0.0000 H       1  UNL1        0.0572
     73 H          11.3860   -3.8179    0.0000 H       1  UNL1        0.0317
     74 H          11.0753   -3.0839    0.0000 H       1  UNL1        0.0317
     75 H           8.3653    2.6043    0.0000 H       1  UNL1        0.0239
     76 H           8.1286    1.7600    0.0000 H       1  UNL1        0.0239
     77 H           8.9728    1.5233    0.0000 H       1  UNL1        0.0239
     78 H          11.0859    4.0262    0.0000 H       1  UNL1        0.0335
     79 H          10.7029    4.7265    0.0000 H       1  UNL1        0.0335
     80 H           8.3965    4.7621    0.0000 H       1  UNL1        0.0315
     81 H           7.9920    4.0739    0.0000 H       1  UNL1        0.0315
     82 H          10.0914    5.0098    0.0000 H       1  UNL1        0.0597
     83 H          10.8093   -5.2327    0.0000 H       1  UNL1        0.0270
     84 H          11.2896   -4.5966    0.0000 H       1  UNL1        0.0270
     85 H           9.1786   -5.2600    0.0000 H       1  UNL1        0.0320
     86 H           8.3588   -4.2339    0.0000 H       1  UNL1        0.0563
     87 H           8.6695   -4.9679    0.0000 H       1  UNL1        0.0563
     88 H           6.8671    2.4726    0.0000 H       1  UNL1        0.0937
     89 H           9.0115   -5.9346    0.0000 H       1  UNL1        0.0233
     90 H           9.5506   -6.6261    0.0000 H       1  UNL1        0.0233
     91 H          10.2421   -6.0869    0.0000 H       1  UNL1        0.0233
     92 H          10.1062    6.0108    0.0000 H       1  UNL1        0.2098
     93 H           5.4641    2.2826    0.0000 H       1  UNL1        0.0675
     94 H           4.5981    3.4026    0.0000 H       1  UNL1        0.0648
     95 H           6.3996    5.0676    0.0000 H       1  UNL1        0.0587
     96 H           5.6025    5.0676    0.0000 H       1  UNL1        0.0587
     97 H           5.1350    4.7126    0.0000 H       1  UNL1        0.0643
     98 H           5.6720    0.7826    0.0000 H       1  UNL1        0.0938
     99 H           3.7320    2.9026    0.0000 H       1  UNL1        0.2100
    100 H           4.2690    5.2126    0.0000 H       1  UNL1        0.2100
    101 H           5.1350   -0.5274    0.0000 H       1  UNL1        0.0671
    102 H           3.7320   -0.7174    0.0000 H       1  UNL1        0.0648
    103 H           3.4030    1.7126    0.0000 H       1  UNL1        0.0621
    104 H           2.8660    0.4026    0.0000 H       1  UNL1        0.0646
    105 H           6.0010   -1.0274    0.0000 H       1  UNL1        0.2101
    106 H           2.8469    2.1296    0.0000 H       1  UNL1        0.0255
    107 H           2.0000    1.9026    0.0000 H       1  UNL1        0.0255
    108 H           2.2269    1.0557    0.0000 H       1  UNL1        0.0255
    109 H           3.7320   -1.7174    0.0000 H       1  UNL1        0.2100
    110 H           2.0000   -0.0974    0.0000 H       1  UNL1        0.2100
@<TRIPOS>BOND
     1     1    17    1
     2    24     1    1
     3     2    24    1
     4     2    38    1
     5    28     3    1
     6    39     3    1
     7    35     4    1
     8     4    92    1
     9     5    39    1
    10     5    43    1
    11    41     6    1
    12    45     6    1
    13    42     7    1
    14     7    99    1
    15    44     8    1
    16     8   100    1
    17     9    45    1
    18     9    48    1
    19    46    10    1
    20    10   105    1
    21    47    11    1
    22    11   109    1
    23    49    12    1
    24    12   110    1
    25    13    14    1
    26    13    15    1
    27    13    20    1
    28    13    25    1
    29    14    16    1
    30    14    19    1
    31    14    51    1
    32    15    17    1
    33    15    21    1
    34    15    52    1
    35    16    18    1
    36    16    26    1
    37    16    53    1
    38    17    19    1
    39    17    54    1
    40    18    22    1
    41    18    23    1
    42    18    55    1
    43    19    56    1
    44    19    57    1
    45    20    22    1
    46    20    58    1
    47    20    59    1
    48    21    24    1
    49    21    29    1
    50    21    60    1
    51    22    61    1
    52    22    62    1
    53    23    27    1
    54    23    28    1
    55    23    32    1
    56    24    31    1
    57    25    63    1
    58    25    64    1
    59    25    65    1
    60    26    30    1
    61    26    66    1
    62    26    67    1
    63    27    30    2
    64    27    33    1
    65    28    34    1
    66    28    68    1
    67    29    69    1
    68    29    70    1
    69    29    71    1
    70    30    72    1
    71    31    36    1
    72    31    73    1
    73    31    74    1
    74    32    75    1
    75    32    76    1
    76    32    77    1
    77    33    35    1
    78    33    78    1
    79    33    79    1
    80    34    35    1
    81    34    80    1
    82    34    81    1
    83    35    82    1
    84    36    37    1
    85    36    83    1
    86    36    84    1
    87    37    38    1
    88    37    40    1
    89    37    85    1
    90    38    86    1
    91    38    87    1
    92    39    41    1
    93    39    88    1
    94    40    89    1
    95    40    90    1
    96    40    91    1
    97    41    42    1
    98    41    93    1
    99    42    44    1
   100    42    94    1
   101    43    44    1
   102    43    95    1
   103    43    96    1
   104    44    97    1
   105    45    46    1
   106    45    98    1
   107    46    47    1
   108    46   101    1
   109    47    49    1
   110    47   102    1
   111    48    49    1
   112    48    50    1
   113    48   103    1
   114    49   104    1
   115    50   106    1
   116    50   107    1
   117    50   108    1
