@<TRIPOS>MOLECULE
IMPHY008777
 52 53 0 0 0
SMALL
GASTEIGER

@<TRIPOS>ATOM
      1 O           4.2690   -2.4050    0.0000 O.3     1  UNL1       -0.3405
      2 O           6.0010   -2.4050    0.0000 O.3     1  UNL1       -0.3460
      3 O           4.2690   -5.4050    0.0000 O.3     1  UNL1       -0.3864
      4 O           2.5369   -4.4050    0.0000 O.3     1  UNL1       -0.3865
      5 O           6.0010   -4.4050    0.0000 O.3     1  UNL1       -0.3841
      6 O           2.5369   -1.4050    0.0000 O.3     1  UNL1       -0.3924
      7 O           7.7331   -1.4050    0.0000 O.3     1  UNL1       -0.3861
      8 O           7.7331    0.5950    0.0000 O.3     1  UNL1       -0.4589
      9 O           6.8671    2.0950    0.0000 O.2     1  UNL1       -0.2456
     10 O          12.0632    5.0950    0.0000 O.3     1  UNL1       -0.5068
     11 C           4.2690   -4.4050    0.0000 C.3     1  UNL1        0.1141
     12 C           3.4030   -3.9050    0.0000 C.3     1  UNL1        0.1119
     13 C           5.1350   -3.9050    0.0000 C.3     1  UNL1        0.1341
     14 C           3.4030   -2.9050    0.0000 C.3     1  UNL1        0.1130
     15 C           5.1350   -2.9050    0.0000 C.3     1  UNL1        0.1880
     16 C           2.5369   -2.4050    0.0000 C.3     1  UNL1        0.0730
     17 C           6.0010   -1.4050    0.0000 C.3     1  UNL1        0.0799
     18 C           6.8671   -0.9050    0.0000 C.3     1  UNL1        0.1125
     19 C           6.8671    0.0950    0.0000 C.3     1  UNL1        0.1207
     20 C           7.7331    1.5950    0.0000 C.2     1  UNL1        0.3320
     21 C           8.5991    2.0950    0.0000 C.2     1  UNL1        0.0231
     22 C           8.5991    3.0950    0.0000 C.2     1  UNL1       -0.0478
     23 C           9.4651    3.5950    0.0000 C.ar    1  UNL1       -0.0246
     24 C          10.3312    3.0950    0.0000 C.ar    1  UNL1       -0.0511
     25 C           9.4651    4.5950    0.0000 C.ar    1  UNL1       -0.0511
     26 C          11.1972    3.5950    0.0000 C.ar    1  UNL1       -0.0196
     27 C          10.3312    5.0950    0.0000 C.ar    1  UNL1       -0.0196
     28 C          11.1972    4.5950    0.0000 C.ar    1  UNL1        0.1169
     29 H           5.0051   -4.8300    0.0000 H       1  UNL1        0.0648
     30 H           2.6668   -3.4800    0.0000 H       1  UNL1        0.0647
     31 H           5.8711   -3.4800    0.0000 H       1  UNL1        0.0671
     32 H           3.4030   -2.0550    0.0000 H       1  UNL1        0.0647
     33 H           5.1350   -2.0550    0.0000 H       1  UNL1        0.0937
     34 H           1.9264   -2.2973    0.0000 H       1  UNL1        0.0584
     35 H           2.3249   -2.9876    0.0000 H       1  UNL1        0.0584
     36 H           3.7320   -5.7150    0.0000 H       1  UNL1        0.2100
     37 H           2.0000   -4.0950    0.0000 H       1  UNL1        0.2100
     38 H           6.5380   -4.0950    0.0000 H       1  UNL1        0.2101
     39 H           5.7890   -0.8224    0.0000 H       1  UNL1        0.0588
     40 H           5.3905   -1.5127    0.0000 H       1  UNL1        0.0588
     41 H           6.8671   -1.5250    0.0000 H       1  UNL1        0.0650
     42 H           2.0000   -1.0950    0.0000 H       1  UNL1        0.2095
     43 H           6.6550    0.6776    0.0000 H       1  UNL1        0.0724
     44 H           6.2565   -0.0127    0.0000 H       1  UNL1        0.0724
     45 H           8.2700   -1.0950    0.0000 H       1  UNL1        0.2100
     46 H           9.1360    1.7850    0.0000 H       1  UNL1        0.0689
     47 H           8.0622    3.4050    0.0000 H       1  UNL1        0.0626
     48 H          10.3312    2.4750    0.0000 H       1  UNL1        0.0625
     49 H           8.9282    4.9050    0.0000 H       1  UNL1        0.0625
     50 H          11.7341    3.2850    0.0000 H       1  UNL1        0.0654
     51 H          10.3312    5.7150    0.0000 H       1  UNL1        0.0654
     52 H          12.0632    5.7150    0.0000 H       1  UNL1        0.2921
@<TRIPOS>BOND
     1     1    14    1
     2     1    15    1
     3     2    15    1
     4     2    17    1
     5     3    11    1
     6     3    36    1
     7     4    12    1
     8     4    37    1
     9     5    13    1
    10     5    38    1
    11     6    16    1
    12     6    42    1
    13    18     7    1
    14     7    45    1
    15     8    19    1
    16     8    20    1
    17     9    20    2
    18    10    28    1
    19    10    52    1
    20    11    12    1
    21    11    13    1
    22    11    29    1
    23    12    14    1
    24    12    30    1
    25    13    15    1
    26    13    31    1
    27    14    16    1
    28    14    32    1
    29    15    33    1
    30    16    34    1
    31    16    35    1
    32    17    18    1
    33    17    39    1
    34    17    40    1
    35    18    19    1
    36    18    41    1
    37    19    43    1
    38    19    44    1
    39    20    21    1
    40    21    22    2
    41    21    46    1
    42    22    23    1
    43    22    47    1
    44    23    24   ar
    45    23    25   ar
    46    24    26   ar
    47    24    48    1
    48    25    27   ar
    49    25    49    1
    50    26    28   ar
    51    26    50    1
    52    27    28   ar
    53    27    51    1
