@<TRIPOS>MOLECULE
IMPHY013962
 52 56 0 0 0
SMALL
GASTEIGER

@<TRIPOS>ATOM
      1 O           2.2408    0.2184    0.0000 O.3     1  UNL1       -0.4525
      2 O           8.5528   -2.3961    0.0000 O.3     1  UNL1       -0.4525
      3 O           2.8824   -1.3304    0.0000 O.3     1  UNL1       -0.4489
      4 O           7.0040   -3.0376    0.0000 O.3     1  UNL1       -0.4489
      5 O           4.4156   -1.7451    0.0000 O.3     1  UNL1       -0.4907
      6 O           5.6265   -2.2467    0.0000 O.3     1  UNL1       -0.4907
      7 C           6.2504    2.2785    0.0000 C.3     1  UNL1       -0.0370
      8 C           7.1743    1.8958    0.0000 C.3     1  UNL1       -0.0370
      9 C           5.3266    1.8958    0.0000 C.3     1  UNL1       -0.0240
     10 C           7.5570    0.9719    0.0000 C.3     1  UNL1       -0.0240
     11 C           4.9439    0.9719    0.0000 C.ar    1  UNL1       -0.0321
     12 C           7.1743    0.0481    0.0000 C.ar    1  UNL1       -0.0321
     13 C           5.3266    0.0481    0.0000 C.ar    1  UNL1        0.0347
     14 C           6.2504   -0.3346    0.0000 C.ar    1  UNL1        0.0347
     15 C           6.2504    3.2785    0.0000 C.3     1  UNL1       -0.0619
     16 C           7.8814    2.6029    0.0000 C.3     1  UNL1       -0.0619
     17 C           3.9134    1.1238    0.0000 C.ar    1  UNL1       -0.0121
     18 C           8.0104   -0.5732    0.0000 C.ar    1  UNL1       -0.0121
     19 C           4.7053   -0.7880    0.0000 C.ar    1  UNL1        0.1734
     20 C           6.0986   -1.3651    0.0000 C.ar    1  UNL1        0.1734
     21 C           3.2729    0.3023    0.0000 C.ar    1  UNL1        0.1702
     22 C           7.8824   -1.6070    0.0000 C.ar    1  UNL1        0.1702
     23 C           3.6715   -0.6600    0.0000 C.ar    1  UNL1        0.2081
     24 C           6.9200   -2.0056    0.0000 C.ar    1  UNL1        0.2081
     25 C           2.0000   -0.7887    0.0000 C.3     1  UNL1        0.2334
     26 C           8.0110   -3.2785    0.0000 C.3     1  UNL1        0.2334
     27 C           3.4419   -1.9729    0.0000 C.3     1  UNL1        0.0790
     28 C           6.1541   -3.0963    0.0000 C.3     1  UNL1        0.0790
     29 H           6.7659    2.6230    0.0000 H       1  UNL1        0.0304
     30 H           7.7824    1.7749    0.0000 H       1  UNL1        0.0304
     31 H           5.2456    2.5105    0.0000 H       1  UNL1        0.0316
     32 H           4.7118    1.9767    0.0000 H       1  UNL1        0.0316
     33 H           8.0489    0.5945    0.0000 H       1  UNL1        0.0316
     34 H           8.0489    1.3494    0.0000 H       1  UNL1        0.0316
     35 H           6.8704    3.2785    0.0000 H       1  UNL1        0.0233
     36 H           6.2504    3.8985    0.0000 H       1  UNL1        0.0233
     37 H           5.6304    3.2785    0.0000 H       1  UNL1        0.0233
     38 H           8.3198    2.1645    0.0000 H       1  UNL1        0.0233
     39 H           8.3198    3.0413    0.0000 H       1  UNL1        0.0233
     40 H           7.4430    3.0413    0.0000 H       1  UNL1        0.0233
     41 H           3.6827    1.6993    0.0000 H       1  UNL1        0.0658
     42 H           8.5804   -0.3294    0.0000 H       1  UNL1        0.0658
     43 H           1.4155   -0.5819    0.0000 H       1  UNL1        0.1166
     44 H           1.7329   -1.3482    0.0000 H       1  UNL1        0.1166
     45 H           7.8042   -3.8630    0.0000 H       1  UNL1        0.1166
     46 H           8.5705   -3.5456    0.0000 H       1  UNL1        0.1166
     47 H           3.3007   -1.3692    0.0000 H       1  UNL1        0.0660
     48 H           2.8382   -2.1141    0.0000 H       1  UNL1        0.0660
     49 H           3.5832   -2.5766    0.0000 H       1  UNL1        0.0660
     50 H           5.6274   -3.4234    0.0000 H       1  UNL1        0.0660
     51 H           6.4812   -3.6230    0.0000 H       1  UNL1        0.0660
     52 H           6.6808   -2.7692    0.0000 H       1  UNL1        0.0660
@<TRIPOS>BOND
     1     1    21    1
     2     1    25    1
     3     2    22    1
     4     2    26    1
     5     3    23    1
     6     3    25    1
     7     4    24    1
     8     4    26    1
     9     5    19    1
    10     5    27    1
    11     6    20    1
    12     6    28    1
    13     7     8    1
    14     7     9    1
    15     7    15    1
    16     7    29    1
    17     8    10    1
    18     8    16    1
    19     8    30    1
    20     9    11    1
    21     9    31    1
    22     9    32    1
    23    10    12    1
    24    10    33    1
    25    10    34    1
    26    11    13   ar
    27    11    17   ar
    28    12    14   ar
    29    12    18   ar
    30    13    14    1
    31    13    19   ar
    32    14    20   ar
    33    15    35    1
    34    15    36    1
    35    15    37    1
    36    16    38    1
    37    16    39    1
    38    16    40    1
    39    17    21   ar
    40    17    41    1
    41    18    22   ar
    42    18    42    1
    43    19    23   ar
    44    20    24   ar
    45    21    23   ar
    46    22    24   ar
    47    25    43    1
    48    25    44    1
    49    26    45    1
    50    26    46    1
    51    27    47    1
    52    27    48    1
    53    27    49    1
    54    28    50    1
    55    28    51    1
    56    28    52    1
