@<TRIPOS>MOLECULE
IMPHY004929
 48 51 0 0 0
SMALL
GASTEIGER

@<TRIPOS>ATOM
      1 O           5.0929   -1.4269    0.0000 O.3     1  UNL1       -0.3313
      2 O           6.8530   -1.7056    0.0000 O.3     1  UNL1       -0.4532
      3 O           4.0051   -3.7747    0.0000 O.3     1  UNL1       -0.3864
      4 O           6.1807   -3.7747    0.0000 O.3     1  UNL1       -0.3829
      5 O           2.5896   -2.3748    0.0000 O.3     1  UNL1       -0.3924
      6 O           8.2198    0.5597    0.0000 O.2     1  UNL1       -0.4507
      7 O           5.3667   -0.3674    0.0000 O.2     1  UNL1       -0.2830
      8 O           4.7935    1.2848    0.0000 O.3     1  UNL1       -0.5058
      9 O           7.1519    3.9245    0.0000 O.3     1  UNL1       -0.5065
     10 O          10.9845   -3.0950    0.0000 O.3     1  UNL1       -0.5068
     11 C           4.5929   -2.9657    0.0000 C.3     1  UNL1        0.1152
     12 C           5.5929   -2.9657    0.0000 C.3     1  UNL1        0.1454
     13 C           4.2839   -2.0146    0.0000 C.3     1  UNL1        0.1141
     14 C           5.9019   -2.0146    0.0000 C.3     1  UNL1        0.2311
     15 C           3.3328   -1.7056    0.0000 C.3     1  UNL1        0.0731
     16 C           7.0609   -0.7275    0.0000 C.ar    1  UNL1        0.2138
     17 C           8.0119   -0.4185    0.0000 C.ar    1  UNL1        0.1809
     18 C           6.3177   -0.0584    0.0000 C.ar    1  UNL1        0.2382
     19 C           6.5256    0.9198    0.0000 C.ar    1  UNL1        0.1092
     20 C           7.4767    1.2288    0.0000 C.ar    1  UNL1        0.1465
     21 C           8.7551   -1.0876    0.0000 C.ar    1  UNL1        0.0213
     22 C           5.7409    1.6048    0.0000 C.ar    1  UNL1        0.1348
     23 C           7.7089    2.2442    0.0000 C.ar    1  UNL1        0.0231
     24 C           9.7061   -0.7786    0.0000 C.ar    1  UNL1       -0.0475
     25 C           8.5472   -2.0658    0.0000 C.ar    1  UNL1       -0.0475
     26 C           5.9496    2.6253    0.0000 C.ar    1  UNL1        0.0223
     27 C           6.9402    2.9472    0.0000 C.ar    1  UNL1        0.1239
     28 C          10.4493   -1.4477    0.0000 C.ar    1  UNL1       -0.0195
     29 C           9.2903   -2.7349    0.0000 C.ar    1  UNL1       -0.0195
     30 C          10.2413   -2.4259    0.0000 C.ar    1  UNL1        0.1169
     31 H           3.9805   -2.8687    0.0000 H       1  UNL1        0.0648
     32 H           5.3114   -3.5181    0.0000 H       1  UNL1        0.0683
     33 H           4.1869   -1.4023    0.0000 H       1  UNL1        0.0647
     34 H           6.3403   -2.4531    0.0000 H       1  UNL1        0.1084
     35 H           3.6239   -1.1582    0.0000 H       1  UNL1        0.0584
     36 H           2.8442   -1.3239    0.0000 H       1  UNL1        0.0584
     37 H           4.2573   -4.3411    0.0000 H       1  UNL1        0.2100
     38 H           5.9285   -4.3411    0.0000 H       1  UNL1        0.2102
     39 H           2.0000   -2.1832    0.0000 H       1  UNL1        0.2095
     40 H           8.3008    2.4290    0.0000 H       1  UNL1        0.0691
     41 H           9.8350   -0.1721    0.0000 H       1  UNL1        0.0626
     42 H           7.9575   -2.2573    0.0000 H       1  UNL1        0.0626
     43 H           5.4873    3.0384    0.0000 H       1  UNL1        0.0691
     44 H          11.0389   -1.2561    0.0000 H       1  UNL1        0.0654
     45 H           9.1614   -3.3413    0.0000 H       1  UNL1        0.0654
     46 H           4.3280    1.6943    0.0000 H       1  UNL1        0.2922
     47 H           6.6928    4.3411    0.0000 H       1  UNL1        0.2921
     48 H          11.5741   -2.9034    0.0000 H       1  UNL1        0.2921
@<TRIPOS>BOND
     1     1    13    1
     2     1    14    1
     3    14     2    1
     4     2    16    1
     5    11     3    1
     6     3    37    1
     7    12     4    1
     8     4    38    1
     9     5    15    1
    10     5    39    1
    11     6    17   ar
    12     6    20   ar
    13     7    18    2
    14     8    22    1
    15     8    46    1
    16     9    27    1
    17     9    47    1
    18    10    30    1
    19    10    48    1
    20    11    12    1
    21    11    13    1
    22    11    31    1
    23    12    14    1
    24    12    32    1
    25    13    15    1
    26    13    33    1
    27    14    34    1
    28    15    35    1
    29    15    36    1
    30    16    17   ar
    31    16    18   ar
    32    17    21    1
    33    18    19   ar
    34    19    20   ar
    35    19    22   ar
    36    20    23   ar
    37    21    24   ar
    38    21    25   ar
    39    22    26   ar
    40    23    27   ar
    41    23    40    1
    42    24    28   ar
    43    24    41    1
    44    25    29   ar
    45    25    42    1
    46    26    27   ar
    47    26    43    1
    48    28    30   ar
    49    28    44    1
    50    29    30   ar
    51    29    45    1
