@<TRIPOS>MOLECULE
IMPHY007785
 34 36 0 0 0
SMALL
GASTEIGER

@<TRIPOS>ATOM
      1 CL          4.5929   -2.4044    0.0000 Cl      1  UNL1       -0.0791
      2 CL          7.0568   -0.6096    0.0000 Cl      1  UNL1       -0.0831
      3 O           3.9511    1.5978    0.0000 O.3     1  UNL1       -0.3353
      4 O           5.0691    1.2345    0.0000 O.3     1  UNL1       -0.3578
      5 O           2.7282   -1.5569    0.0000 O.2     1  UNL1       -0.2903
      6 O           6.0202    0.8349    0.0000 O.2     1  UNL1       -0.2862
      7 C           3.4511    0.0590    0.0000 C.3     1  UNL1        0.1015
      8 C           2.6420    0.6467    0.0000 C.3     1  UNL1        0.0070
      9 C           2.5372   -0.3482    0.0000 C.3     1  UNL1       -0.0279
     10 C           2.9511    1.5978    0.0000 C.3     1  UNL1        0.0716
     11 C           4.2601    0.6467    0.0000 C.3     1  UNL1        0.2463
     12 C           3.5440   -0.9785    0.0000 C.2     1  UNL1        0.1870
     13 C           2.9511    2.5978    0.0000 C.3     1  UNL1       -0.0357
     14 C           2.0000    1.9068    0.0000 C.3     1  UNL1       -0.0357
     15 C           5.2181    0.2378    0.0000 C.2     1  UNL1        0.2256
     16 C           4.4922   -1.4095    0.0000 C.2     1  UNL1        0.0961
     17 C           5.3349   -0.7973    0.0000 C.2     1  UNL1        0.0625
     18 C           6.2500   -1.2005    0.0000 C.2     1  UNL1        0.0490
     19 C           6.3584   -2.1946    0.0000 C.2     1  UNL1       -0.0680
     20 C           7.2735   -2.5978    0.0000 C.3     1  UNL1       -0.0451
     21 H           1.8106    0.8236    0.0000 H       1  UNL1        0.0340
     22 H           1.9187   -0.3914    0.0000 H       1  UNL1        0.0281
     23 H           2.6872   -0.9498    0.0000 H       1  UNL1        0.0281
     24 H           3.5711    2.5978    0.0000 H       1  UNL1        0.0257
     25 H           2.9511    3.2178    0.0000 H       1  UNL1        0.0257
     26 H           2.3311    2.5978    0.0000 H       1  UNL1        0.0257
     27 H           2.1916    2.4965    0.0000 H       1  UNL1        0.0257
     28 H           1.4103    2.0984    0.0000 H       1  UNL1        0.0257
     29 H           1.8084    1.3172    0.0000 H       1  UNL1        0.0257
     30 H           5.0043    1.8511    0.0000 H       1  UNL1        0.2132
     31 H           5.8582   -2.5609    0.0000 H       1  UNL1        0.0584
     32 H           7.0235   -3.1652    0.0000 H       1  UNL1        0.0272
     33 H           7.8409   -2.8478    0.0000 H       1  UNL1        0.0272
     34 H           7.5235   -2.0304    0.0000 H       1  UNL1        0.0272
@<TRIPOS>BOND
     1     1    16    1
     2     2    18    1
     3     3    10    1
     4     3    11    1
     5    11     4    1
     6     4    30    1
     7     5    12    2
     8     6    15    2
     9     7     8    1
    10     7     9    1
    11     7    11    1
    12     7    12    1
    13     8     9    1
    14     8    10    1
    15     8    21    1
    16     9    22    1
    17     9    23    1
    18    10    13    1
    19    10    14    1
    20    11    15    1
    21    12    16    1
    22    13    24    1
    23    13    25    1
    24    13    26    1
    25    14    27    1
    26    14    28    1
    27    14    29    1
    28    15    17    1
    29    16    17    2
    30    17    18    1
    31    18    19    2
    32    19    20    1
    33    19    31    1
    34    20    32    1
    35    20    33    1
    36    20    34    1
