@<TRIPOS>MOLECULE
IMPHY007406
 31 32 0 0 0
SMALL
GASTEIGER

@<TRIPOS>ATOM
      1 O           5.8435    0.2842    0.0000 O.3     1  UNL1       -0.3413
      2 O           3.5332    0.4697    0.0000 O.3     1  UNL1       -0.3747
      3 O           4.0835    1.1810    0.0000 O.3     1  UNL1       -0.3601
      4 O           4.7558    2.6320    0.0000 O.3     1  UNL1       -0.3837
      5 O           6.9313    2.6320    0.0000 O.3     1  UNL1       -0.3868
      6 O           6.2068   -0.2158    0.0000 O.2     1  UNL1       -0.2724
      7 O           2.3644   -2.1804    0.0000 O.3     1  UNL1       -0.4793
      8 OXT         3.7657   -3.1984    0.0000 O.2     1  UNL1       -0.2489
      9 N           4.9467   -1.4759    0.0000 N.am    1  UNL1       -0.2997
     10 C           4.4467    0.0630    0.0000 C.3     1  UNL1        0.2000
     11 C           5.0345    0.8720    0.0000 C.3     1  UNL1        0.2349
     12 C           5.3435    1.8230    0.0000 C.3     1  UNL1        0.1399
     13 C           3.6377   -0.5248    0.0000 C.3     1  UNL1        0.0188
     14 C           6.3435    1.8230    0.0000 C.3     1  UNL1        0.1095
     15 CA          3.9467   -1.4759    0.0000 C.3     1  UNL1        0.1235
     16 C           5.2558   -0.5248    0.0000 C.2     1  UNL1        0.2510
     17 C           6.6526    0.8720    0.0000 C.3     1  UNL1        0.0796
     18 C           3.3590   -2.2849    0.0000 C.2     1  UNL1        0.3254
     19 H           5.6250    2.3755    0.0000 H       1  UNL1        0.0675
     20 H           3.3277    0.0121    0.0000 H       1  UNL1        0.0323
     21 H           3.0713   -0.7770    0.0000 H       1  UNL1        0.0323
     22 H           6.9559    1.7260    0.0000 H       1  UNL1        0.0644
     23 HA          4.2282   -2.0283    0.0000 H       1  UNL1        0.0615
     24 H           6.9626    0.3350    0.0000 H       1  UNL1        0.0587
     25 H           7.2190    1.1242    0.0000 H       1  UNL1        0.0587
     26 H           5.3112   -1.9775    0.0000 H       1  UNL1        0.1496
     27 H           3.0316    0.1053    0.0000 H       1  UNL1        0.2110
     28 H           3.9546    1.7874    0.0000 H       1  UNL1        0.2129
     29 H           5.0079    3.1984    0.0000 H       1  UNL1        0.2101
     30 H           7.5479    2.5672    0.0000 H       1  UNL1        0.2100
     31 H           2.0000   -2.6820    0.0000 H       1  UNL1        0.2951
@<TRIPOS>BOND
     1     1    11    1
     2     1    17    1
     3     2    10    1
     4     2    27    1
     5     3    11    1
     6     3    28    1
     7     4    12    1
     8     4    29    1
     9     5    14    1
    10     5    30    1
    11     6    16    2
    12     7    18    1
    13     7    31    1
    14     8    18    2
    15     9    15    1
    16     9    16   am
    17     9    26    1
    18    10    11    1
    19    10    13    1
    20    10    16    1
    21    11    12    1
    22    12    14    1
    23    12    19    1
    24    13    15    1
    25    13    20    1
    26    13    21    1
    27    14    17    1
    28    14    22    1
    29    15    18    1
    30    15    23    1
    31    17    24    1
    32    17    25    1
