@<TRIPOS>MOLECULE
IMPHY006214
 41 41 0 0 0
SMALL
GASTEIGER

@<TRIPOS>ATOM
      1 O           6.3302   -0.1899    0.0000 O.2     1  UNL1       -0.2971
      2 O           2.8660   -1.1900    0.0000 O.2     1  UNL1       -0.2968
      3 C           3.7320    0.3100    0.0000 C.3     1  UNL1        0.0268
      4 C           2.8660    0.8100    0.0000 C.3     1  UNL1       -0.0368
      5 C           4.5981    0.8100    0.0000 C.3     1  UNL1        0.0158
      6 C           6.3301    0.8100    0.0000 C.3     1  UNL1        0.0150
      7 C           5.4641    0.3100    0.0000 C.2     1  UNL1        0.1368
      8 C           3.7320   -0.6900    0.0000 C.2     1  UNL1        0.1410
      9 C           7.1962    0.3100    0.0000 C.3     1  UNL1       -0.0403
     10 C           4.5981   -1.1900    0.0000 C.3     1  UNL1        0.0270
     11 C           7.1962   -0.6900    0.0000 C.3     1  UNL1       -0.0339
     12 C           2.8660    1.8100    0.0000 C.3     1  UNL1       -0.0620
     13 C           2.0000    0.3100    0.0000 C.3     1  UNL1       -0.0620
     14 C           5.4641   -0.6900    0.0000 C.2     1  UNL1       -0.0694
     15 C           6.3301    1.8100    0.0000 C.3     1  UNL1       -0.0557
     16 C           6.3301   -1.1900    0.0000 C.2     1  UNL1       -0.0846
     17 C           5.0784   -0.2304    0.0000 C.3     1  UNL1       -0.0434
     18 H           3.7320    0.9300    0.0000 H       1  UNL1        0.0384
     19 H           2.8660    0.1900    0.0000 H       1  UNL1        0.0302
     20 H           4.9966    1.2850    0.0000 H       1  UNL1        0.0349
     21 H           4.1996    1.2850    0.0000 H       1  UNL1        0.0349
     22 H           6.8671    1.1200    0.0000 H       1  UNL1        0.0375
     23 H           7.8067    0.2023    0.0000 H       1  UNL1        0.0275
     24 H           7.4082    0.8926    0.0000 H       1  UNL1        0.0275
     25 H           4.1996   -1.6650    0.0000 H       1  UNL1        0.0387
     26 H           4.9966   -1.6650    0.0000 H       1  UNL1        0.0387
     27 H           7.4082   -1.2726    0.0000 H       1  UNL1        0.0308
     28 H           7.8067   -0.5823    0.0000 H       1  UNL1        0.0308
     29 H           3.4860    1.8100    0.0000 H       1  UNL1        0.0233
     30 H           2.8660    2.4300    0.0000 H       1  UNL1        0.0233
     31 H           2.2460    1.8100    0.0000 H       1  UNL1        0.0233
     32 H           1.6900    0.8469    0.0000 H       1  UNL1        0.0233
     33 H           1.4631    0.0000    0.0000 H       1  UNL1        0.0233
     34 H           2.3100   -0.2269    0.0000 H       1  UNL1        0.0233
     35 H           6.9501    1.8100    0.0000 H       1  UNL1        0.0236
     36 H           6.3301    2.4300    0.0000 H       1  UNL1        0.0236
     37 H           5.7101    1.8100    0.0000 H       1  UNL1        0.0236
     38 H           6.3301   -1.8100    0.0000 H       1  UNL1        0.0572
     39 H           5.5534    0.1682    0.0000 H       1  UNL1        0.0274
     40 H           4.6799    0.2446    0.0000 H       1  UNL1        0.0274
     41 H           4.6035   -0.6289    0.0000 H       1  UNL1        0.0274
@<TRIPOS>BOND
     1     1     7    2
     2     2     8    2
     3     3     4    1
     4     3     5    1
     5     3     8    1
     6     3    18    1
     7     4    12    1
     8     4    13    1
     9     4    19    1
    10     5     7    1
    11     5    20    1
    12     5    21    1
    13     6     7    1
    14     6     9    1
    15     6    15    1
    16     6    22    1
    17     8    10    1
    18     9    11    1
    19     9    23    1
    20     9    24    1
    21    10    14    1
    22    10    25    1
    23    10    26    1
    24    11    16    1
    25    11    27    1
    26    11    28    1
    27    12    29    1
    28    12    30    1
    29    12    31    1
    30    13    32    1
    31    13    33    1
    32    13    34    1
    33    14    16    2
    34    14    17    1
    35    15    35    1
    36    15    36    1
    37    15    37    1
    38    16    38    1
    39    17    39    1
    40    17    40    1
    41    17    41    1
