@<TRIPOS>MOLECULE
IMPHY014492
 41 43 0 0 0
SMALL
GASTEIGER

@<TRIPOS>ATOM
      1 O           7.2785    2.0346    0.0000 O.3     1  UNL1       -0.4907
      2 O           7.2785   -2.0346    0.0000 O.3     1  UNL1       -0.4943
      3 O           3.7817    2.0346    0.0000 O.3     1  UNL1       -0.5056
      4 O           9.0602    1.0241    0.0000 O.3     1  UNL1       -0.4913
      5 O           5.5301    2.0000    0.0000 O.2     1  UNL1       -0.2864
      6 O           5.5301   -2.0000    0.0000 O.2     1  UNL1       -0.2865
      7 O           2.0000   -1.0241    0.0000 O.3     1  UNL1       -0.5064
      8 C           6.3961    0.5000    0.0000 C.ar    1  UNL1        0.0819
      9 C           6.3961   -0.5000    0.0000 C.ar    1  UNL1        0.0784
     10 C           4.6641    0.5000    0.0000 C.ar    1  UNL1        0.0750
     11 C           4.6641   -0.5000    0.0000 C.ar    1  UNL1        0.0402
     12 C           5.5301    1.0000    0.0000 C.2     1  UNL1        0.2018
     13 C           5.5301   -1.0000    0.0000 C.2     1  UNL1        0.1984
     14 C           7.2901    1.0347    0.0000 C.ar    1  UNL1        0.1732
     15 C           3.7702    1.0347    0.0000 C.ar    1  UNL1        0.1347
     16 C           7.2901   -1.0347    0.0000 C.ar    1  UNL1        0.1353
     17 C           2.8641    0.5208    0.0000 C.ar    1  UNL1        0.0330
     18 C           3.7702   -1.0347    0.0000 C.ar    1  UNL1       -0.0082
     19 C           8.1962    0.5208    0.0000 C.ar    1  UNL1        0.1657
     20 C           2.8641   -0.5208    0.0000 C.ar    1  UNL1        0.1239
     21 C           8.1962   -0.5208    0.0000 C.ar    1  UNL1        0.0262
     22 C           2.0000    1.0241    0.0000 C.3     1  UNL1       -0.0327
     23 C           8.1387    2.5446    0.0000 C.3     1  UNL1        0.0790
     24 C           8.1387   -2.5446    0.0000 C.3     1  UNL1        0.0788
     25 C           9.9282    0.5275    0.0000 C.3     1  UNL1        0.0790
     26 H           3.7773   -1.6546    0.0000 H       1  UNL1        0.0661
     27 H           8.7319   -0.8329    0.0000 H       1  UNL1        0.0692
     28 H           2.3121    1.5599    0.0000 H       1  UNL1        0.0280
     29 H           1.4643    1.3362    0.0000 H       1  UNL1        0.0280
     30 H           1.6879    0.4884    0.0000 H       1  UNL1        0.0280
     31 H           3.2484    2.3508    0.0000 H       1  UNL1        0.2922
     32 H           2.0024   -1.6442    0.0000 H       1  UNL1        0.2921
     33 H           8.4549    2.0113    0.0000 H       1  UNL1        0.0660
     34 H           8.6720    2.8608    0.0000 H       1  UNL1        0.0660
     35 H           7.8225    3.0779    0.0000 H       1  UNL1        0.0660
     36 H           7.8225   -3.0779    0.0000 H       1  UNL1        0.0660
     37 H           8.6720   -2.8608    0.0000 H       1  UNL1        0.0660
     38 H           8.4549   -2.0113    0.0000 H       1  UNL1        0.0660
     39 H           9.6203   -0.0106    0.0000 H       1  UNL1        0.0660
     40 H          10.4663    0.2196    0.0000 H       1  UNL1        0.0660
     41 H          10.2361    1.0656    0.0000 H       1  UNL1        0.0660
@<TRIPOS>BOND
     1     1    14    1
     2     1    23    1
     3     2    16    1
     4     2    24    1
     5     3    15    1
     6     3    31    1
     7     4    19    1
     8     4    25    1
     9     5    12    2
    10     6    13    2
    11     7    20    1
    12     7    32    1
    13     8     9   ar
    14     8    12    1
    15     8    14   ar
    16     9    13    1
    17     9    16   ar
    18    10    11   ar
    19    10    12    1
    20    10    15   ar
    21    11    13    1
    22    11    18   ar
    23    14    19   ar
    24    15    17   ar
    25    16    21   ar
    26    17    20   ar
    27    17    22    1
    28    18    20   ar
    29    18    26    1
    30    19    21   ar
    31    21    27    1
    32    22    28    1
    33    22    29    1
    34    22    30    1
    35    23    33    1
    36    23    34    1
    37    23    35    1
    38    24    36    1
    39    24    37    1
    40    24    38    1
    41    25    39    1
    42    25    40    1
    43    25    41    1
