@<TRIPOS>MOLECULE
IMPHY012245
 25 24 0 0 0
SMALL
GASTEIGER

@<TRIPOS>ATOM
      1 C           5.4641   -0.2500    0.0000 C.3     1  UNL1       -0.0525
      2 C           6.3301    0.2500    0.0000 C.3     1  UNL1       -0.0496
      3 C           4.5981    0.2500    0.0000 C.3     1  UNL1       -0.0496
      4 C           7.1962   -0.2500    0.0000 C.3     1  UNL1       -0.0350
      5 C           3.7320   -0.2500    0.0000 C.3     1  UNL1       -0.0350
      6 C           8.0622    0.2500    0.0000 C.2     1  UNL1       -0.0911
      7 C           2.8660    0.2500    0.0000 C.2     1  UNL1       -0.0911
      8 C           8.9282   -0.2500    0.0000 C.2     1  UNL1       -0.1026
      9 C           2.0000   -0.2500    0.0000 C.2     1  UNL1       -0.1026
     10 H           5.0656   -0.7249    0.0000 H       1  UNL1        0.0265
     11 H           5.8626   -0.7249    0.0000 H       1  UNL1        0.0265
     12 H           6.7287    0.7249    0.0000 H       1  UNL1        0.0268
     13 H           5.9316    0.7249    0.0000 H       1  UNL1        0.0268
     14 H           4.9966    0.7249    0.0000 H       1  UNL1        0.0268
     15 H           4.1996    0.7249    0.0000 H       1  UNL1        0.0268
     16 H           6.7976   -0.7249    0.0000 H       1  UNL1        0.0307
     17 H           7.5947   -0.7249    0.0000 H       1  UNL1        0.0307
     18 H           3.3335   -0.7249    0.0000 H       1  UNL1        0.0307
     19 H           4.1306   -0.7249    0.0000 H       1  UNL1        0.0307
     20 H           8.0622    0.8700    0.0000 H       1  UNL1        0.0566
     21 H           2.8660    0.8700    0.0000 H       1  UNL1        0.0566
     22 H           8.9282   -0.8700    0.0000 H       1  UNL1        0.0532
     23 H           9.4651    0.0600    0.0000 H       1  UNL1        0.0532
     24 H           1.4631    0.0600    0.0000 H       1  UNL1        0.0532
     25 H           2.0000   -0.8700    0.0000 H       1  UNL1        0.0532
@<TRIPOS>BOND
     1     1     2    1
     2     1     3    1
     3     1    10    1
     4     1    11    1
     5     2     4    1
     6     2    12    1
     7     2    13    1
     8     3     5    1
     9     3    14    1
    10     3    15    1
    11     4     6    1
    12     4    16    1
    13     4    17    1
    14     5     7    1
    15     5    18    1
    16     5    19    1
    17     6     8    2
    18     6    20    1
    19     7     9    2
    20     7    21    1
    21     8    22    1
    22     8    23    1
    23     9    24    1
    24     9    25    1
