@<TRIPOS>MOLECULE
IMPHY010435
 69 74 0 0 0
SMALL
GASTEIGER

@<TRIPOS>ATOM
      1 O           3.4381   -0.7026    0.0000 O.3     1  UNL1       -0.3878
      2 O           6.7784    1.8904    0.0000 O.3     1  UNL1       -0.3791
      3 O           3.0615    1.4645    0.0000 O.3     1  UNL1       -0.3910
      4 O           2.6607    2.3483    0.0000 O.3     1  UNL1       -0.3793
      5 O           7.6444   -2.3448    0.0000 O.3     1  UNL1       -0.3824
      6 N           7.9737    0.0613    0.0000 N.3     1  UNL1       -0.2981
      7 C           6.0270    0.4566    0.0000 C.3     1  UNL1        0.0195
      8 C           6.0270   -0.4110    0.0000 C.3     1  UNL1       -0.0220
      9 C           5.3487    0.9975    0.0000 C.3     1  UNL1       -0.0231
     10 C           7.0290    0.3505    0.0000 C.3     1  UNL1        0.0244
     11 C           4.5029   -0.7589    0.0000 C.3     1  UNL1        0.0048
     12 C           4.5029    0.8044    0.0000 C.3     1  UNL1        0.0181
     13 C           4.1264    0.0228    0.0000 C.3     1  UNL1        0.0781
     14 C           6.7784   -0.8448    0.0000 C.3     1  UNL1        0.0104
     15 C           5.3487   -0.9519    0.0000 C.3     1  UNL1       -0.0420
     16 C           6.7784    0.8904    0.0000 C.3     1  UNL1        0.0659
     17 C           5.4265    1.8616    0.0000 C.3     1  UNL1       -0.0416
     18 C           4.6287    2.2026    0.0000 C.3     1  UNL1        0.0120
     19 C           4.0579    1.5492    0.0000 C.3     1  UNL1        0.0661
     20 C           3.4816    0.2927    0.0000 C.3     1  UNL1        0.0034
     21 C           7.9737   -0.6906    0.0000 C.3     1  UNL1        0.0072
     22 C           7.5297   -0.4110    0.0000 C.3     1  UNL1       -0.0415
     23 C           3.4816    1.7772    0.0000 C.3     1  UNL1        0.0661
     24 C           7.5297    0.4566    0.0000 C.3     1  UNL1       -0.0254
     25 C           6.7783   -1.8448    0.0000 C.3     1  UNL1        0.0544
     26 C           8.7776    0.6560    0.0000 C.3     1  UNL1       -0.0036
     27 C           9.6946    0.2571    0.0000 C.3     1  UNL1       -0.0523
     28 C           7.6444    2.3904    0.0000 C.3     1  UNL1        0.0368
     29 C           2.7448    3.3448    0.0000 C.3     1  UNL1        0.0368
     30 C           7.6444   -3.3448    0.0000 C.3     1  UNL1        0.0365
     31 H           6.0905   -1.2586    0.0000 H       1  UNL1        0.0314
     32 H           6.1303    1.3316    0.0000 H       1  UNL1        0.0312
     33 H           7.1529    0.9580    0.0000 H       1  UNL1        0.0473
     34 H           3.9729   -1.4234    0.0000 H       1  UNL1        0.0344
     35 H           3.6537    0.7663    0.0000 H       1  UNL1        0.0357
     36 H           5.8334   -1.3385    0.0000 H       1  UNL1        0.0272
     37 H           5.0797   -1.5105    0.0000 H       1  UNL1        0.0272
     38 H           6.2414    1.2004    0.0000 H       1  UNL1        0.0602
     39 H           5.6092    2.4540    0.0000 H       1  UNL1        0.0272
     40 H           6.0348    1.7418    0.0000 H       1  UNL1        0.0272
     41 H           4.6495    3.0523    0.0000 H       1  UNL1        0.0351
     42 H           3.7778    2.1023    0.0000 H       1  UNL1        0.0600
     43 H           3.3196   -0.3058    0.0000 H       1  UNL1        0.0318
     44 H           2.8670    0.3744    0.0000 H       1  UNL1        0.0318
     45 H           8.5931   -0.6640    0.0000 H       1  UNL1        0.0433
     46 H           8.0266   -1.3083    0.0000 H       1  UNL1        0.0433
     47 H           8.1403   -0.3033    0.0000 H       1  UNL1        0.0273
     48 H           7.7417   -0.9936    0.0000 H       1  UNL1        0.0273
     49 H           3.5597    2.3923    0.0000 H       1  UNL1        0.0600
     50 H           7.7417    1.0392    0.0000 H       1  UNL1        0.0290
     51 H           8.1403    0.3489    0.0000 H       1  UNL1        0.0290
     52 H           6.5663   -2.4274    0.0000 H       1  UNL1        0.0566
     53 H           6.1678   -1.7371    0.0000 H       1  UNL1        0.0566
     54 H           2.8352   -0.5579    0.0000 H       1  UNL1        0.2102
     55 H           8.3280    1.0829    0.0000 H       1  UNL1        0.0424
     56 H           9.1199    1.1730    0.0000 H       1  UNL1        0.0424
     57 H           2.7981    0.9033    0.0000 H       1  UNL1        0.2098
     58 H           9.9420    0.8256    0.0000 H       1  UNL1        0.0242
     59 H          10.2632    0.0098    0.0000 H       1  UNL1        0.0242
     60 H           9.4473   -0.3114    0.0000 H       1  UNL1        0.0242
     61 H           7.3344    2.9273    0.0000 H       1  UNL1        0.0524
     62 H           8.1813    2.7004    0.0000 H       1  UNL1        0.0524
     63 H           7.9544    1.8534    0.0000 H       1  UNL1        0.0524
     64 H           2.1270    3.3970    0.0000 H       1  UNL1        0.0524
     65 H           2.7970    3.9626    0.0000 H       1  UNL1        0.0524
     66 H           3.3626    3.2926    0.0000 H       1  UNL1        0.0524
     67 H           8.2644   -3.3448    0.0000 H       1  UNL1        0.0523
     68 H           7.6444   -3.9648    0.0000 H       1  UNL1        0.0523
     69 H           7.0244   -3.3448    0.0000 H       1  UNL1        0.0523
@<TRIPOS>BOND
     1    13     1    1
     2     1    54    1
     3    16     2    1
     4     2    28    1
     5    19     3    1
     6     3    57    1
     7    23     4    1
     8     4    29    1
     9     5    25    1
    10     5    30    1
    11     6    10    1
    12     6    21    1
    13     6    26    1
    14     7     8    1
    15     7     9    1
    16     7    10    1
    17     7    16    1
    18     8    14    1
    19     8    15    1
    20     8    31    1
    21     9    12    1
    22     9    17    1
    23     9    32    1
    24    10    11    1
    25    10    33    1
    26    11    13    1
    27    11    15    1
    28    11    34    1
    29    12    13    1
    30    12    19    1
    31    12    35    1
    32    13    20    1
    33    14    21    1
    34    14    22    1
    35    14    25    1
    36    15    36    1
    37    15    37    1
    38    16    24    1
    39    16    38    1
    40    17    18    1
    41    17    39    1
    42    17    40    1
    43    18    19    1
    44    18    23    1
    45    18    41    1
    46    19    42    1
    47    20    23    1
    48    20    43    1
    49    20    44    1
    50    21    45    1
    51    21    46    1
    52    22    24    1
    53    22    47    1
    54    22    48    1
    55    23    49    1
    56    24    50    1
    57    24    51    1
    58    25    52    1
    59    25    53    1
    60    26    27    1
    61    26    55    1
    62    26    56    1
    63    27    58    1
    64    27    59    1
    65    27    60    1
    66    28    61    1
    67    28    62    1
    68    28    63    1
    69    29    64    1
    70    29    65    1
    71    29    66    1
    72    30    67    1
    73    30    68    1
    74    30    69    1
