@<TRIPOS>MOLECULE
IMPHY009884
 32 32 0 0 0
SMALL
GASTEIGER

@<TRIPOS>ATOM
      1 O           3.7601    0.8597    0.0000 O.3     1  UNL1       -0.4610
      2 O           2.0000    1.1384    0.0000 O.2     1  UNL1       -0.2508
      3 C           4.5691    1.4475    0.0000 C.3     1  UNL1        0.1070
      4 C           4.2601    2.3985    0.0000 C.3     1  UNL1       -0.0053
      5 C           3.2601    2.3985    0.0000 C.3     1  UNL1        0.0483
      6 C           5.5202    1.1384    0.0000 C.3     1  UNL1        0.0026
      7 C           2.9511    1.4475    0.0000 C.2     1  UNL1        0.3075
      8 C           6.2633    1.8076    0.0000 C.2     1  UNL1       -0.0842
      9 C           7.2144    1.4986    0.0000 C.2     1  UNL1       -0.0841
     10 C           7.4223    0.5204    0.0000 C.3     1  UNL1       -0.0165
     11 C           8.3733    0.2114    0.0000 C.2     1  UNL1       -0.0842
     12 C           8.5812   -0.7668    0.0000 C.2     1  UNL1       -0.0879
     13 C           7.8381   -1.4359    0.0000 C.3     1  UNL1       -0.0376
     14 C           8.0460   -2.4140    0.0000 C.3     1  UNL1       -0.0618
     15 H           4.6661    0.8351    0.0000 H       1  UNL1        0.0737
     16 H           4.8665    2.5274    0.0000 H       1  UNL1        0.0306
     17 H           4.1953    3.0151    0.0000 H       1  UNL1        0.0306
     18 H           3.3249    3.0151    0.0000 H       1  UNL1        0.0379
     19 H           2.6536    2.5274    0.0000 H       1  UNL1        0.0379
     20 H           5.2291    0.5910    0.0000 H       1  UNL1        0.0343
     21 H           6.0087    0.7567    0.0000 H       1  UNL1        0.0343
     22 H           6.1344    2.4140    0.0000 H       1  UNL1        0.0570
     23 H           7.6751    1.9134    0.0000 H       1  UNL1        0.0572
     24 H           6.8026    0.4988    0.0000 H       1  UNL1        0.0350
     25 H           7.3360   -0.0936    0.0000 H       1  UNL1        0.0350
     26 H           8.8341    0.6263    0.0000 H       1  UNL1        0.0572
     27 H           9.1709   -0.9583    0.0000 H       1  UNL1        0.0569
     28 H           7.5095   -0.9101    0.0000 H       1  UNL1        0.0305
     29 H           7.2632   -1.6681    0.0000 H       1  UNL1        0.0305
     30 H           7.4395   -2.5429    0.0000 H       1  UNL1        0.0233
     31 H           8.1749   -3.0205    0.0000 H       1  UNL1        0.0233
     32 H           8.6524   -2.2851    0.0000 H       1  UNL1        0.0233
@<TRIPOS>BOND
     1     1     3    1
     2     1     7    1
     3     2     7    2
     4     3     4    1
     5     3     6    1
     6     3    15    1
     7     4     5    1
     8     4    16    1
     9     4    17    1
    10     5     7    1
    11     5    18    1
    12     5    19    1
    13     6     8    1
    14     6    20    1
    15     6    21    1
    16     8     9    2
    17     8    22    1
    18     9    10    1
    19     9    23    1
    20    10    11    1
    21    10    24    1
    22    10    25    1
    23    11    12    2
    24    11    26    1
    25    12    13    1
    26    12    27    1
    27    13    14    1
    28    13    28    1
    29    13    29    1
    30    14    30    1
    31    14    31    1
    32    14    32    1
