@<TRIPOS>MOLECULE
IMPHY000866
 38 41 0 0 0
SMALL
GASTEIGER

@<TRIPOS>ATOM
      1 O           3.7153   -1.6863    0.0000 O.3     1  UNL1       -0.3632
      2 O           4.3723    1.7860    0.0000 O.3     1  UNL1       -0.4574
      3 O           2.8836    2.7551    0.0000 O.2     1  UNL1       -0.2453
      4 C           4.5816   -1.1858    0.0000 C.3     1  UNL1        0.1047
      5 C           5.4476   -0.6858    0.0000 C.3     1  UNL1        0.0031
      6 C           3.7155   -0.6858    0.0000 C.3     1  UNL1        0.0995
      7 C           4.5655   -2.2273    0.0000 C.3     1  UNL1       -0.0117
      8 C           3.7155    0.3142    0.0000 C.3     1  UNL1        0.0564
      9 C           5.4476    0.3142    0.0000 C.3     1  UNL1       -0.0069
     10 C           4.5816    0.8142    0.0000 C.3     1  UNL1        0.1134
     11 C           6.3576   -1.1927    0.0000 C.3     1  UNL1       -0.0448
     12 C           5.4635   -2.7551    0.0000 C.3     1  UNL1       -0.0477
     13 C           6.3656   -2.2343    0.0000 C.3     1  UNL1       -0.0521
     14 C           6.3136   -0.1858    0.0000 C.3     1  UNL1       -0.0567
     15 C           2.9785    0.9813    0.0000 C.2     1  UNL1        0.0387
     16 C           3.6937   -2.7173    0.0000 C.3     1  UNL1       -0.0597
     17 C           3.3836    1.8890    0.0000 C.2     1  UNL1        0.3353
     18 C           2.0000    0.7750    0.0000 C.2     1  UNL1       -0.0882
     19 H           2.8655   -0.6857    0.0000 H       1  UNL1        0.0633
     20 H           4.5595   -2.8473    0.0000 H       1  UNL1        0.0327
     21 H           2.9386   -0.0305    0.0000 H       1  UNL1        0.0413
     22 H           6.0582    0.2065    0.0000 H       1  UNL1        0.0307
     23 H           5.6596    0.8968    0.0000 H       1  UNL1        0.0307
     24 H           5.2686    1.3147    0.0000 H       1  UNL1        0.0741
     25 H           6.9692   -1.2940    0.0000 H       1  UNL1        0.0271
     26 H           6.5621   -0.6074    0.0000 H       1  UNL1        0.0271
     27 H           5.0626   -3.2280    0.0000 H       1  UNL1        0.0269
     28 H           5.8608   -3.2311    0.0000 H       1  UNL1        0.0269
     29 H           6.5792   -2.8163    0.0000 H       1  UNL1        0.0266
     30 H           6.9756   -2.1235    0.0000 H       1  UNL1        0.0266
     31 H           6.6236   -0.7228    0.0000 H       1  UNL1        0.0236
     32 H           6.8505    0.1242    0.0000 H       1  UNL1        0.0236
     33 H           6.0036    0.3511    0.0000 H       1  UNL1        0.0236
     34 H           3.3900   -2.1768    0.0000 H       1  UNL1        0.0233
     35 H           3.1532   -3.0210    0.0000 H       1  UNL1        0.0233
     36 H           3.9975   -3.2578    0.0000 H       1  UNL1        0.0233
     37 H           1.5859    1.2365    0.0000 H       1  UNL1        0.0540
     38 H           1.8074    0.1857    0.0000 H       1  UNL1        0.0540
@<TRIPOS>BOND
     1     4     1    1
     2     1     6    1
     3     2    10    1
     4     2    17    1
     5     3    17    2
     6     4     5    1
     7     4     6    1
     8     4     7    1
     9     5     9    1
    10     5    11    1
    11     5    14    1
    12     6     8    1
    13     6    19    1
    14     7    12    1
    15     7    16    1
    16     7    20    1
    17     8    10    1
    18     8    15    1
    19     8    21    1
    20     9    10    1
    21     9    22    1
    22     9    23    1
    23    10    24    1
    24    11    13    1
    25    11    25    1
    26    11    26    1
    27    12    13    1
    28    12    27    1
    29    12    28    1
    30    13    29    1
    31    13    30    1
    32    14    31    1
    33    14    32    1
    34    14    33    1
    35    15    17    1
    36    15    18    2
    37    16    34    1
    38    16    35    1
    39    16    36    1
    40    18    37    1
    41    18    38    1
