@<TRIPOS>MOLECULE
IMPHY006717
 25 27 0 0 0
SMALL
GASTEIGER

@<TRIPOS>ATOM
      1 O           4.6660    1.5173    0.0000 O.2     1  UNL1       -0.2866
      2 C           4.6660   -1.4827    0.0000 C.3     1  UNL1       -0.0011
      3 C           5.5321   -0.9827    0.0000 C.ar    1  UNL1       -0.0322
      4 C           3.8000   -0.9827    0.0000 C.ar    1  UNL1       -0.0322
      5 C           3.8000    0.0173    0.0000 C.ar    1  UNL1        0.0257
      6 C           5.5321    0.0173    0.0000 C.ar    1  UNL1        0.0257
      7 C           4.6660    0.5173    0.0000 C.2     1  UNL1        0.1937
      8 C           6.4260   -1.5173    0.0000 C.ar    1  UNL1       -0.0576
      9 C           2.9061   -1.5173    0.0000 C.ar    1  UNL1       -0.0576
     10 C           6.4260    0.5520    0.0000 C.ar    1  UNL1       -0.0506
     11 C           2.9061    0.5520    0.0000 C.ar    1  UNL1       -0.0506
     12 C           2.0000   -1.0035    0.0000 C.ar    1  UNL1       -0.0615
     13 C           7.3321   -1.0035    0.0000 C.ar    1  UNL1       -0.0615
     14 C           2.0000    0.0381    0.0000 C.ar    1  UNL1       -0.0611
     15 C           7.3321    0.0381    0.0000 C.ar    1  UNL1       -0.0611
     16 H           4.2675   -1.9576    0.0000 H       1  UNL1        0.0362
     17 H           5.0646   -1.9576    0.0000 H       1  UNL1        0.0362
     18 H           6.4188   -2.1373    0.0000 H       1  UNL1        0.0621
     19 H           2.9132   -2.1373    0.0000 H       1  UNL1        0.0621
     20 H           6.4188    1.1720    0.0000 H       1  UNL1        0.0625
     21 H           2.9132    1.1720    0.0000 H       1  UNL1        0.0625
     22 H           7.8678   -1.3156    0.0000 H       1  UNL1        0.0618
     23 H           1.4643   -1.3156    0.0000 H       1  UNL1        0.0618
     24 H           7.8678    0.3502    0.0000 H       1  UNL1        0.0618
     25 H           1.4643    0.3502    0.0000 H       1  UNL1        0.0618
@<TRIPOS>BOND
     1     1     7    2
     2     2     3    1
     3     2     4    1
     4     2    16    1
     5     2    17    1
     6     3     6   ar
     7     3     8   ar
     8     4     5   ar
     9     4     9   ar
    10     5     7    1
    11     5    11   ar
    12     6     7    1
    13     6    10   ar
    14     8    13   ar
    15     8    18    1
    16     9    12   ar
    17     9    19    1
    18    10    15   ar
    19    10    20    1
    20    11    14   ar
    21    11    21    1
    22    12    14   ar
    23    12    23    1
    24    13    15   ar
    25    13    22    1
    26    14    25    1
    27    15    24    1
