@<TRIPOS>MOLECULE
IMPHY000444
 66 70 0 0 0
SMALL
GASTEIGER

@<TRIPOS>ATOM
      1 O           5.4746    2.1745    0.0000 O.3     1  UNL1       -0.4836
      2 O           6.7871    0.5224    0.0000 O.3     1  UNL1       -0.3834
      3 O           5.8337    3.8992    0.0000 O.3     1  UNL1       -0.3913
      4 O           9.7736   -0.6733    0.0000 O.3     1  UNL1       -0.4522
      5 O          10.3030    2.7739    0.0000 O.3     1  UNL1       -0.4913
      6 O          11.0367    0.8891    0.0000 O.3     1  UNL1       -0.5009
      7 O           5.7828   -2.3325    0.0000 O.2     1  UNL1       -0.2708
      8 N           2.6067   -0.4096    0.0000 N.ar    1  UNL1       -0.3604
      9 N           4.5134   -3.4068    0.0000 N.am    1  UNL1       -0.3115
     10 C           6.4682    2.2875    0.0000 C.3     1  UNL1        0.1528
     11 C           7.0629    1.4836    0.0000 C.3     1  UNL1        0.1193
     12 C           4.2097   -0.2425    0.0000 C.ar    1  UNL1        0.0063
     13 C           4.0005   -1.2143    0.0000 C.ar    1  UNL1       -0.0208
     14 C           3.3437    0.2575    0.0000 C.ar    1  UNL1        0.0470
     15 C           3.6016   -2.1313    0.0000 C.3     1  UNL1       -0.0101
     16 C           8.0519    1.3356    0.0000 C.ar    1  UNL1       -0.0084
     17 C           5.0757    1.2575    0.0000 C.ar    1  UNL1        0.1219
     18 C           5.0757    0.2575    0.0000 C.ar    1  UNL1       -0.0105
     19 C           6.6162    3.2765    0.0000 C.3     1  UNL1        0.0839
     20 C           3.0118   -1.3174    0.0000 C.ar    1  UNL1        0.0060
     21 C           3.3437    1.2575    0.0000 C.ar    1  UNL1       -0.0343
     22 C           4.2097    1.7575    0.0000 C.ar    1  UNL1       -0.0179
     23 C           4.4003   -2.4132    0.0000 C.3     1  UNL1        0.0159
     24 C           8.4183    0.4052    0.0000 C.ar    1  UNL1       -0.0097
     25 C           8.6752    2.1378    0.0000 C.ar    1  UNL1       -0.0103
     26 C           9.4073    0.2572    0.0000 C.ar    1  UNL1        0.1736
     27 C           9.6804    1.9914    0.0000 C.ar    1  UNL1        0.1653
     28 C          10.0489    1.0447    0.0000 C.ar    1  UNL1        0.2017
     29 C           5.5070   -3.2938    0.0000 C.2     1  UNL1        0.2369
     30 C           9.1510   -1.4558    0.0000 C.ar    1  UNL1        0.1287
     31 C           6.2895   -3.9164    0.0000 C.2     1  UNL1        0.0007
     32 C           7.9057   -3.0208    0.0000 C.ar    1  UNL1       -0.0246
     33 C           8.1565   -1.2992    0.0000 C.ar    1  UNL1       -0.0188
     34 C           9.5173   -2.3863    0.0000 C.ar    1  UNL1       -0.0188
     35 C           7.2831   -3.8033    0.0000 C.2     1  UNL1       -0.0497
     36 C           7.5297   -2.0870    0.0000 C.ar    1  UNL1       -0.0511
     37 C           8.8947   -3.1688    0.0000 C.ar    1  UNL1       -0.0511
     38 C           9.9367    3.7043    0.0000 C.3     1  UNL1        0.0790
     39 H           7.0451    2.5147    0.0000 H       1  UNL1        0.0786
     40 H           6.4613    1.3337    0.0000 H       1  UNL1        0.0682
     41 H           3.0274   -1.8976    0.0000 H       1  UNL1        0.0329
     42 H           3.3815   -2.7109    0.0000 H       1  UNL1        0.0329
     43 H           5.6127   -0.0525    0.0000 H       1  UNL1        0.0661
     44 H           7.2041    3.0797    0.0000 H       1  UNL1        0.0595
     45 H           6.9121    3.8214    0.0000 H       1  UNL1        0.0595
     46 H           2.7018   -1.8543    0.0000 H       1  UNL1        0.0810
     47 H           2.0000   -0.2817    0.0000 H       1  UNL1        0.1653
     48 H           2.8068    1.5675    0.0000 H       1  UNL1        0.0639
     49 H           4.2097    2.3775    0.0000 H       1  UNL1        0.0655
     50 H           5.0199   -2.4365    0.0000 H       1  UNL1        0.0465
     51 H           4.5165   -1.8042    0.0000 H       1  UNL1        0.0465
     52 H           8.0322   -0.0800    0.0000 H       1  UNL1        0.0659
     53 H           8.4436    2.7129    0.0000 H       1  UNL1        0.0659
     54 H           7.2178    0.0763    0.0000 H       1  UNL1        0.2104
     55 H           4.1274   -3.8920    0.0000 H       1  UNL1        0.1490
     56 H           5.9254    4.5123    0.0000 H       1  UNL1        0.2096
     57 H          11.4265    1.3713    0.0000 H       1  UNL1        0.2924
     58 H           6.1185   -4.5123    0.0000 H       1  UNL1        0.0669
     59 H           7.9316   -0.7214    0.0000 H       1  UNL1        0.0654
     60 H          10.1305   -2.4780    0.0000 H       1  UNL1        0.0654
     61 H           7.5836   -4.3456    0.0000 H       1  UNL1        0.0625
     62 H           6.9162   -1.9976    0.0000 H       1  UNL1        0.0625
     63 H           9.1218   -3.7457    0.0000 H       1  UNL1        0.0625
     64 H          10.5136    3.9315    0.0000 H       1  UNL1        0.0660
     65 H           9.7095    4.2812    0.0000 H       1  UNL1        0.0660
     66 H           9.3598    3.4772    0.0000 H       1  UNL1        0.0660
@<TRIPOS>BOND
     1     1    10    1
     2     1    17    1
     3    11     2    1
     4     2    54    1
     5     3    19    1
     6     3    56    1
     7     4    26    1
     8     4    30    1
     9     5    27    1
    10     5    38    1
    11     6    28    1
    12     6    57    1
    13     7    29    2
    14     8    14   ar
    15     8    20   ar
    16     8    47    1
    17     9    23    1
    18     9    29   am
    19     9    55    1
    20    10    11    1
    21    10    19    1
    22    10    39    1
    23    11    16    1
    24    11    40    1
    25    12    13   ar
    26    12    14   ar
    27    12    18   ar
    28    13    15    1
    29    13    20   ar
    30    14    21   ar
    31    15    23    1
    32    15    41    1
    33    15    42    1
    34    16    24   ar
    35    16    25   ar
    36    17    18   ar
    37    17    22   ar
    38    18    43    1
    39    19    44    1
    40    19    45    1
    41    20    46    1
    42    21    22   ar
    43    21    48    1
    44    22    49    1
    45    23    50    1
    46    23    51    1
    47    24    26   ar
    48    24    52    1
    49    25    27   ar
    50    25    53    1
    51    26    28   ar
    52    27    28   ar
    53    29    31    1
    54    30    33   ar
    55    30    34   ar
    56    31    35    2
    57    31    58    1
    58    32    35    1
    59    32    36   ar
    60    32    37   ar
    61    33    36   ar
    62    33    59    1
    63    34    37   ar
    64    34    60    1
    65    35    61    1
    66    36    62    1
    67    37    63    1
    68    38    64    1
    69    38    65    1
    70    38    66    1
