@<TRIPOS>MOLECULE
IMPHY010407
 143 150 0 0 0
SMALL
GASTEIGER

@<TRIPOS>ATOM
      1 O           5.0578    5.5576    0.0000 O.3     1  UNL1       -0.3910
      2 O           7.7331   -2.1946    0.0000 O.3     1  UNL1       -0.3449
      3 O           6.4817    7.5996    0.0000 O.3     1  UNL1       -0.3885
      4 O           7.7732    8.1988    0.0000 O.3     1  UNL1       -0.3887
      5 O           5.3338    6.8583    0.0000 O.3     1  UNL1       -0.3943
      6 O           6.0010   -2.1946    0.0000 O.3     1  UNL1       -0.3315
      7 O           7.7331   -4.1946    0.0000 O.3     1  UNL1       -0.3377
      8 O           6.0010   -5.1946    0.0000 O.3     1  UNL1       -0.3400
      9 O           4.2690   -4.1946    0.0000 O.3     1  UNL1       -0.3860
     10 O           8.5991   -2.6946    0.0000 O.3     1  UNL1       -0.3405
     11 O           4.2690   -1.1946    0.0000 O.3     1  UNL1       -0.4788
     12 O           3.4030   -2.6946    0.0000 O.2     1  UNL1       -0.2480
     13 O           4.2690   -5.1946    0.0000 O.3     1  UNL1       -0.3461
     14 O           9.4651   -5.1946    0.0000 O.3     1  UNL1       -0.3841
     15 O          11.1972   -4.1946    0.0000 O.3     1  UNL1       -0.3864
     16 O           6.0010   -7.1946    0.0000 O.3     1  UNL1       -0.3841
     17 O          11.1972   -2.1946    0.0000 O.3     1  UNL1       -0.3865
     18 O           4.2690   -8.1946    0.0000 O.3     1  UNL1       -0.3864
     19 O           2.5369   -7.1946    0.0000 O.3     1  UNL1       -0.3869
     20 O          10.3312   -0.6946    0.0000 O.3     1  UNL1       -0.3924
     21 C           6.8320    2.5056    0.0000 C.3     1  UNL1       -0.0193
     22 C           7.6961    2.0023    0.0000 C.3     1  UNL1       -0.0257
     23 C           7.7082    0.9607    0.0000 C.3     1  UNL1       -0.0250
     24 C           6.8359    3.5056    0.0000 C.3     1  UNL1       -0.0028
     25 C           6.8081    0.4364    0.0000 C.3     1  UNL1       -0.0278
     26 C           5.9201    2.0023    0.0000 C.3     1  UNL1       -0.0463
     27 C           7.7038    4.0023    0.0000 C.2     1  UNL1       -0.0631
     28 C           7.7239    5.0437    0.0000 C.3     1  UNL1       -0.0062
     29 C           6.8279    5.5749    0.0000 C.3     1  UNL1        0.0545
     30 C           5.9080    0.9607    0.0000 C.3     1  UNL1       -0.0486
     31 C           6.7956   -0.6485    0.0000 C.3     1  UNL1       -0.0052
     32 C           5.9278    4.0160    0.0000 C.3     1  UNL1       -0.0165
     33 C           8.5641    2.4989    0.0000 C.3     1  UNL1       -0.0306
     34 C           8.6581    0.4364    0.0000 C.3     1  UNL1       -0.0447
     35 C           5.9238    5.0576    0.0000 C.3     1  UNL1        0.0667
     36 C           5.8479    2.6831    0.0000 C.3     1  UNL1       -0.0585
     37 C           7.7331   -1.1946    0.0000 C.3     1  UNL1        0.0672
     38 C           8.5679    3.4989    0.0000 C.2     1  UNL1       -0.0836
     39 C           8.5723    1.4641    0.0000 C.3     1  UNL1       -0.0590
     40 C           8.6706   -0.6485    0.0000 C.3     1  UNL1       -0.0255
     41 C           5.8504    3.3358    0.0000 C.3     1  UNL1       -0.0552
     42 C           8.6778    5.5607    0.0000 C.3     1  UNL1       -0.0381
     43 C           6.8237    6.6599    0.0000 C.3     1  UNL1        0.0921
     44 C           8.6987    6.6454    0.0000 C.3     1  UNL1       -0.0059
     45 C           7.7654    7.1988    0.0000 C.3     1  UNL1        0.0869
     46 C           5.9677    6.0849    0.0000 C.3     1  UNL1        0.0552
     47 C           5.7956   -0.6408    0.0000 C.3     1  UNL1       -0.0572
     48 C           6.2889   -1.5106    0.0000 C.3     1  UNL1       -0.0572
     49 C           9.2120    7.5037    0.0000 C.3     1  UNL1       -0.0574
     50 C           9.6986    6.6300    0.0000 C.3     1  UNL1       -0.0574
     51 C           6.8671   -2.6946    0.0000 C.3     1  UNL1        0.1892
     52 C           6.8671   -3.6946    0.0000 C.3     1  UNL1        0.1410
     53 C           6.0010   -4.1946    0.0000 C.3     1  UNL1        0.1214
     54 C           5.1350   -2.6946    0.0000 C.3     1  UNL1        0.1859
     55 C           5.1350   -3.6946    0.0000 C.3     1  UNL1        0.1205
     56 C           8.5991   -3.6946    0.0000 C.3     1  UNL1        0.1885
     57 C           4.2690   -2.1946    0.0000 C.2     1  UNL1        0.3367
     58 C           5.1350   -5.6946    0.0000 C.3     1  UNL1        0.1880
     59 C           9.4651   -4.1946    0.0000 C.3     1  UNL1        0.1341
     60 C          10.3312   -3.6946    0.0000 C.3     1  UNL1        0.1141
     61 C           5.1350   -6.6946    0.0000 C.3     1  UNL1        0.1341
     62 C           9.4651   -2.1946    0.0000 C.3     1  UNL1        0.1130
     63 C          10.3312   -2.6946    0.0000 C.3     1  UNL1        0.1119
     64 C           4.2690   -7.1946    0.0000 C.3     1  UNL1        0.1137
     65 C           3.4030   -5.6946    0.0000 C.3     1  UNL1        0.0792
     66 C           3.4030   -6.6946    0.0000 C.3     1  UNL1        0.1069
     67 C           9.4651   -1.1946    0.0000 C.3     1  UNL1        0.0730
     68 H           8.4339    1.5801    0.0000 H       1  UNL1        0.0315
     69 H           6.0687    0.0171    0.0000 H       1  UNL1        0.0312
     70 H           5.7178    2.5884    0.0000 H       1  UNL1        0.0271
     71 H           5.3080    1.9033    0.0000 H       1  UNL1        0.0271
     72 H           8.4500    4.6018    0.0000 H       1  UNL1        0.0354
     73 H           5.2984    1.0739    0.0000 H       1  UNL1        0.0268
     74 H           5.6922    0.3795    0.0000 H       1  UNL1        0.0268
     75 H           5.3166    4.1197    0.0000 H       1  UNL1        0.0299
     76 H           5.7210    3.4315    0.0000 H       1  UNL1        0.0299
     77 H           8.7739    1.9155    0.0000 H       1  UNL1        0.0310
     78 H           9.1751    2.6042    0.0000 H       1  UNL1        0.0310
     79 H           9.2701    0.3374    0.0000 H       1  UNL1        0.0271
     80 H           8.8604    1.0225    0.0000 H       1  UNL1        0.0271
     81 H           5.3875    4.7466    0.0000 H       1  UNL1        0.0601
     82 H           5.9579    3.2932    0.0000 H       1  UNL1        0.0235
     83 H           5.2377    2.7931    0.0000 H       1  UNL1        0.0235
     84 H           5.7379    2.0729    0.0000 H       1  UNL1        0.0235
     85 H           8.2706   -1.5036    0.0000 H       1  UNL1        0.0602
     86 H           9.1060    3.8069    0.0000 H       1  UNL1        0.0572
     87 H           8.8843    0.9283    0.0000 H       1  UNL1        0.0235
     88 H           9.1080    1.7761    0.0000 H       1  UNL1        0.0235
     89 H           8.2602    1.9998    0.0000 H       1  UNL1        0.0235
     90 H           8.8864   -1.2297    0.0000 H       1  UNL1        0.0290
     91 H           9.2802   -0.5353    0.0000 H       1  UNL1        0.0290
     92 H           5.7451    3.9468    0.0000 H       1  UNL1        0.0238
     93 H           5.2394    3.2305    0.0000 H       1  UNL1        0.0238
     94 H           5.9557    2.7248    0.0000 H       1  UNL1        0.0238
     95 H           8.8756    4.9730    0.0000 H       1  UNL1        0.0277
     96 H           9.2906    5.6550    0.0000 H       1  UNL1        0.0277
     97 H           6.2134    6.5511    0.0000 H       1  UNL1        0.0626
     98 H           7.2303    7.5119    0.0000 H       1  UNL1        0.0625
     99 H           5.3717    5.9140    0.0000 H       1  UNL1        0.0564
    100 H           6.3717    6.5552    0.0000 H       1  UNL1        0.0564
    101 H           5.7544   -1.1965    0.0000 H       1  UNL1        0.0236
    102 H           5.8004   -0.0208    0.0000 H       1  UNL1        0.0236
    103 H           5.1756   -0.6360    0.0000 H       1  UNL1        0.0236
    104 H           5.7908   -1.2608    0.0000 H       1  UNL1        0.0236
    105 H           5.9748   -2.0452    0.0000 H       1  UNL1        0.0236
    106 H           6.8234   -1.8248    0.0000 H       1  UNL1        0.0236
    107 H           4.5209    5.2476    0.0000 H       1  UNL1        0.2098
    108 H           9.7441    7.1854    0.0000 H       1  UNL1        0.0236
    109 H           9.5303    8.0358    0.0000 H       1  UNL1        0.0236
    110 H           8.6799    7.8219    0.0000 H       1  UNL1        0.0236
    111 H           9.6891    6.0101    0.0000 H       1  UNL1        0.0236
    112 H          10.3185    6.6205    0.0000 H       1  UNL1        0.0236
    113 H           9.7082    7.2500    0.0000 H       1  UNL1        0.0236
    114 H           6.8802    8.0746    0.0000 H       1  UNL1        0.2099
    115 H           8.3125    8.5046    0.0000 H       1  UNL1        0.2099
    116 H           7.4040   -3.0046    0.0000 H       1  UNL1        0.0938
    117 H           4.7220    6.7577    0.0000 H       1  UNL1        0.2094
    118 H           6.8671   -4.3146    0.0000 H       1  UNL1        0.0675
    119 H           5.4641   -4.5046    0.0000 H       1  UNL1        0.0652
    120 H           5.1350   -2.0746    0.0000 H       1  UNL1        0.0741
    121 H           4.5981   -3.3846    0.0000 H       1  UNL1        0.0652
    122 H           8.0622   -3.3846    0.0000 H       1  UNL1        0.0938
    123 H           3.7320   -3.8846    0.0000 H       1  UNL1        0.2100
    124 H           5.1350   -5.0746    0.0000 H       1  UNL1        0.0937
    125 H          10.0021   -4.5046    0.0000 H       1  UNL1        0.0671
    126 H          10.8681   -3.3846    0.0000 H       1  UNL1        0.0648
    127 H           5.1350   -7.3146    0.0000 H       1  UNL1        0.0671
    128 H           8.9282   -1.8846    0.0000 H       1  UNL1        0.0647
    129 H           3.7320   -0.8846    0.0000 H       1  UNL1        0.2951
    130 H          10.3312   -2.0746    0.0000 H       1  UNL1        0.0647
    131 H           3.7320   -7.5046    0.0000 H       1  UNL1        0.0647
    132 H          10.0021   -5.5046    0.0000 H       1  UNL1        0.2101
    133 H           3.1909   -5.1120    0.0000 H       1  UNL1        0.0587
    134 H           2.7924   -5.8023    0.0000 H       1  UNL1        0.0587
    135 H           2.8660   -6.3846    0.0000 H       1  UNL1        0.0643
    136 H           9.2531   -0.6120    0.0000 H       1  UNL1        0.0584
    137 H           8.8546   -1.3023    0.0000 H       1  UNL1        0.0584
    138 H          11.1972   -4.8146    0.0000 H       1  UNL1        0.2100
    139 H           6.0010   -7.8146    0.0000 H       1  UNL1        0.2101
    140 H          11.7341   -2.5046    0.0000 H       1  UNL1        0.2100
    141 H           3.7320   -8.5046    0.0000 H       1  UNL1        0.2100
    142 H           2.0000   -6.8846    0.0000 H       1  UNL1        0.2100
    143 H          10.8681   -1.0046    0.0000 H       1  UNL1        0.2095
@<TRIPOS>BOND
     1    35     1    1
     2     1   107    1
     3    37     2    1
     4    51     2    1
     5    43     3    1
     6     3   114    1
     7    45     4    1
     8     4   115    1
     9     5    46    1
    10     5   117    1
    11     6    51    1
    12     6    54    1
    13    52     7    1
    14    56     7    1
    15    53     8    1
    16    58     8    1
    17    55     9    1
    18     9   123    1
    19    10    56    1
    20    10    62    1
    21    11    57    1
    22    11   129    1
    23    12    57    2
    24    13    58    1
    25    13    65    1
    26    59    14    1
    27    14   132    1
    28    60    15    1
    29    15   138    1
    30    61    16    1
    31    16   139    1
    32    63    17    1
    33    17   140    1
    34    64    18    1
    35    18   141    1
    36    66    19    1
    37    19   142    1
    38    20    67    1
    39    20   143    1
    40    21    22    1
    41    21    24    1
    42    21    26    1
    43    21    36    1
    44    22    23    1
    45    22    33    1
    46    22    68    1
    47    23    25    1
    48    23    34    1
    49    23    39    1
    50    24    27    1
    51    24    32    1
    52    24    41    1
    53    25    30    1
    54    25    31    1
    55    25    69    1
    56    26    30    1
    57    26    70    1
    58    26    71    1
    59    27    28    1
    60    27    38    2
    61    28    29    1
    62    28    42    1
    63    28    72    1
    64    29    35    1
    65    29    43    1
    66    29    46    1
    67    30    73    1
    68    30    74    1
    69    31    37    1
    70    31    47    1
    71    31    48    1
    72    32    35    1
    73    32    75    1
    74    32    76    1
    75    33    38    1
    76    33    77    1
    77    33    78    1
    78    34    40    1
    79    34    79    1
    80    34    80    1
    81    35    81    1
    82    36    82    1
    83    36    83    1
    84    36    84    1
    85    37    40    1
    86    37    85    1
    87    38    86    1
    88    39    87    1
    89    39    88    1
    90    39    89    1
    91    40    90    1
    92    40    91    1
    93    41    92    1
    94    41    93    1
    95    41    94    1
    96    42    44    1
    97    42    95    1
    98    42    96    1
    99    43    45    1
   100    43    97    1
   101    44    45    1
   102    44    49    1
   103    44    50    1
   104    45    98    1
   105    46    99    1
   106    46   100    1
   107    47   102    1
   108    47   103    1
   109    47   104    1
   110    48   101    1
   111    48   105    1
   112    48   106    1
   113    49   108    1
   114    49   109    1
   115    49   110    1
   116    50   111    1
   117    50   112    1
   118    50   113    1
   119    51    52    1
   120    51   116    1
   121    52    53    1
   122    52   118    1
   123    53    55    1
   124    53   119    1
   125    54    55    1
   126    54    57    1
   127    54   120    1
   128    55   121    1
   129    56    59    1
   130    56   122    1
   131    58    61    1
   132    58   124    1
   133    59    60    1
   134    59   125    1
   135    60    63    1
   136    60   126    1
   137    61    64    1
   138    61   127    1
   139    62    63    1
   140    62    67    1
   141    62   128    1
   142    63   130    1
   143    64    66    1
   144    64   131    1
   145    65    66    1
   146    65   133    1
   147    65   134    1
   148    66   135    1
   149    67   136    1
   150    67   137    1
