@<TRIPOS>MOLECULE
IMPHY005273
 36 37 0 0 0
SMALL
GASTEIGER

@<TRIPOS>ATOM
      1 CL          6.0682   -1.1754    0.0000 Cl      1  UNL1        0.0000
      2 O           6.0682   -0.1754    0.0000 O.2     2  UNL2       -0.1997
      3 O           7.8003    1.8246    0.0000 O.3     2  UNL2       -0.4995
      4 O           4.3198    2.8592    0.0000 O.3     2  UNL2       -0.5057
      5 O           8.6663   -2.6754    0.0000 O.3     2  UNL2       -0.4914
      6 O           2.5381   -0.1995    0.0000 O.3     2  UNL2       -0.5063
      7 O          10.3984   -1.6754    0.0000 O.3     2  UNL2       -0.5033
      8 C           5.2022    1.3246    0.0000 C.ar    2  UNL2        0.1241
      9 C           6.9343    0.3246    0.0000 C.ar    2  UNL2        0.4043
     10 C           5.2022    0.3246    0.0000 C.ar    2  UNL2        0.3708
     11 C           7.8003   -0.1754    0.0000 C.ar    2  UNL2        0.0865
     12 C           6.9343    1.3246    0.0000 C.ar    2  UNL2        0.2238
     13 C           6.0682    1.8246    0.0000 C.ar    2  UNL2        0.0090
     14 C           4.3083    1.8593    0.0000 C.ar    2  UNL2        0.1366
     15 C           4.3083   -0.2101    0.0000 C.ar    2  UNL2        0.0847
     16 C           7.8003   -1.1754    0.0000 C.ar    2  UNL2       -0.0001
     17 C           8.6663    0.3246    0.0000 C.ar    2  UNL2       -0.0418
     18 C           3.4022    0.3038    0.0000 C.ar    2  UNL2        0.1293
     19 C           3.4022    1.3454    0.0000 C.ar    2  UNL2        0.0225
     20 C           8.6663   -1.6754    0.0000 C.ar    2  UNL2        0.1621
     21 C           9.5323   -0.1754    0.0000 C.ar    2  UNL2       -0.0157
     22 C           9.5323   -1.1754    0.0000 C.ar    2  UNL2        0.1585
     23 C           9.5323   -3.1754    0.0000 C.3     2  UNL2        0.0790
     24 H           6.0682    2.4446    0.0000 H       2  UNL2        0.0667
     25 H           4.3154   -0.8300    0.0000 H       2  UNL2        0.0749
     26 H           7.2634   -1.4854    0.0000 H       2  UNL2        0.0664
     27 H           8.6663    0.9446    0.0000 H       2  UNL2        0.0628
     28 H           2.8665    1.6575    0.0000 H       2  UNL2        0.0691
     29 H          10.0693    0.1346    0.0000 H       2  UNL2        0.0655
     30 H           7.8003    2.4446    0.0000 H       2  UNL2        0.2925
     31 H           3.7865    3.1754    0.0000 H       2  UNL2        0.2922
     32 H           2.0000    0.1084    0.0000 H       2  UNL2        0.2921
     33 H          10.9353   -1.3654    0.0000 H       2  UNL2        0.2923
     34 H           9.2224   -3.7123    0.0000 H       2  UNL2        0.0660
     35 H          10.0693   -3.4854    0.0000 H       2  UNL2        0.0660
     36 H           9.8424   -2.6385    0.0000 H       2  UNL2        0.0660
@<TRIPOS>UNITY_ATOM_ATTR
1 1
charge -1
2 1
charge 1
@<TRIPOS>BOND
     1     2     9   ar
     2     2    10   ar
     3     3    12    1
     4     3    30    1
     5     4    14    1
     6     4    31    1
     7     5    20    1
     8     5    23    1
     9     6    18    1
    10     6    32    1
    11     7    22    1
    12     7    33    1
    13     8    10   ar
    14     8    13   ar
    15     8    14   ar
    16     9    11    1
    17     9    12   ar
    18    10    15   ar
    19    11    16   ar
    20    11    17   ar
    21    12    13   ar
    22    13    24    1
    23    14    19   ar
    24    15    18   ar
    25    15    25    1
    26    16    20   ar
    27    16    26    1
    28    17    21   ar
    29    17    27    1
    30    18    19   ar
    31    19    28    1
    32    20    22   ar
    33    21    22   ar
    34    21    29    1
    35    23    34    1
    36    23    35    1
    37    23    36    1
