@<TRIPOS>MOLECULE
IMPHY011304
 20 23 0 0 0
SMALL
GASTEIGER

@<TRIPOS>ATOM
      1 O           6.9198    0.2517    0.0000 O.2     1  UNL1       -0.2666
      2 O           4.3096    2.8209    0.0000 O.3     1  UNL1       -0.4682
      3 O           2.5357    1.7968    0.0000 O.3     1  UNL1       -0.2833
      4 N           6.0538   -1.2483    0.0000 N.ar    1  UNL1       -0.2731
      5 C           5.1877   -1.7483    0.0000 C.ar    1  UNL1        0.0668
      6 C           4.3217   -1.2483    0.0000 C.ar    1  UNL1        0.0165
      7 C           4.3217   -0.2483    0.0000 C.ar    1  UNL1        0.0094
      8 C           5.2038   -2.7898    0.0000 C.ar    1  UNL1        0.0177
      9 C           5.1877    0.2517    0.0000 C.ar    1  UNL1        0.0598
     10 C           6.0538   -0.2483    0.0000 C.ar    1  UNL1        0.2648
     11 C           6.7908   -1.9154    0.0000 C.ar    1  UNL1        0.0830
     12 C           6.3857   -2.8232    0.0000 C.ar    1  UNL1        0.0205
     13 C           3.4117   -1.7552    0.0000 C.ar    1  UNL1        0.0014
     14 C           3.4117    0.2585    0.0000 C.ar    1  UNL1        0.0454
     15 C           4.3058   -3.3176    0.0000 C.ar    1  UNL1        0.0015
     16 C           5.2038    1.2932    0.0000 C.ar    1  UNL1        0.0450
     17 C           3.4037   -2.7968    0.0000 C.ar    1  UNL1        0.0001
     18 C           4.3058    1.8209    0.0000 C.ar    1  UNL1        0.1775
     19 C           3.4037    1.3001    0.0000 C.ar    1  UNL1        0.2293
     20 C           5.1776    3.3176    0.0000 C.3     1  UNL1        0.2526
@<TRIPOS>BOND
     1     1    10    2
     2     2    18    1
     3     2    20    1
     4     3    19    1
     5     4     5   ar
     6     4    10   ar
     7     4    11   ar
     8     5     6   ar
     9     5     8   ar
    10     6     7   ar
    11     6    13   ar
    12     7     9   ar
    13     7    14   ar
    14     8    12   ar
    15     8    15   ar
    16     9    10   ar
    17     9    16   ar
    18    11    12   ar
    19    13    17   ar
    20    14    19   ar
    21    15    17   ar
    22    16    18   ar
    23    18    19   ar
