@<TRIPOS>MOLECULE
IMPHY004695
 16 16 0 0 0
SMALL
GASTEIGER

@<TRIPOS>ATOM
      1 S           4.2601    1.1191    0.0000 S.2     1  UNL1       -0.0726
      2 O           5.7281   -1.1191    0.0000 O.2     1  UNL1       -0.2902
      3 N           3.7601   -0.4197    0.0000 N.ar    1  UNL1       -0.2413
      4 C           2.9511    0.1681    0.0000 C.ar    1  UNL1        0.0462
      5 C           4.5691    0.1681    0.0000 C.ar    1  UNL1        0.1434
      6 C           3.2601    1.1191    0.0000 C.ar    1  UNL1       -0.0012
      7 C           5.5202   -0.1410    0.0000 C.2     1  UNL1        0.1849
      8 C           2.0000   -0.1410    0.0000 C.3     1  UNL1       -0.0218
      9 C           6.2633    0.5282    0.0000 C.3     1  UNL1        0.0007
     10 H           2.8956    1.6207    0.0000 H       1  UNL1        0.0712
     11 H           1.8084    0.4487    0.0000 H       1  UNL1        0.0293
     12 H           1.4103   -0.3326    0.0000 H       1  UNL1        0.0293
     13 H           2.1916   -0.7306    0.0000 H       1  UNL1        0.0293
     14 H           6.6782    0.0674    0.0000 H       1  UNL1        0.0310
     15 H           6.7240    0.9430    0.0000 H       1  UNL1        0.0310
     16 H           5.8484    0.9889    0.0000 H       1  UNL1        0.0310
@<TRIPOS>BOND
     1     1     5   ar
     2     1     6   ar
     3     2     7    2
     4     3     4   ar
     5     3     5   ar
     6     4     6   ar
     7     4     8    1
     8     5     7    1
     9     6    10    1
    10     7     9    1
    11     8    11    1
    12     8    12    1
    13     8    13    1
    14     9    14    1
    15     9    15    1
    16     9    16    1
