@<TRIPOS>MOLECULE
IMPHY012642
 38 40 0 0 0
SMALL
GASTEIGER

@<TRIPOS>ATOM
      1 O           5.9247    0.4540    0.0000 O.2     1  UNL1       -0.2965
      2 C           4.1545    0.4508    0.0000 C.3     1  UNL1        0.0560
      3 C           3.1054    0.6339    0.0000 C.3     1  UNL1       -0.0126
      4 C           2.4224    1.4508    0.0000 C.3     1  UNL1       -0.0162
      5 C           3.2884   -0.0492    0.0000 C.2     1  UNL1       -0.0538
      6 C           4.1545    1.4508    0.0000 C.3     1  UNL1       -0.0358
      7 C           3.2884    1.9508    0.0000 C.3     1  UNL1       -0.0450
      8 C           3.2724   -1.0907    0.0000 C.3     1  UNL1       -0.0125
      9 C           2.4224    0.4508    0.0000 C.2     1  UNL1       -0.0797
     10 C           5.0645   -0.0560    0.0000 C.2     1  UNL1        0.1440
     11 C           2.0000    0.9509    0.0000 C.3     1  UNL1       -0.0581
     12 C           2.6987   -0.2797    0.0000 C.3     1  UNL1       -0.0581
     13 C           4.1704   -1.6184    0.0000 C.3     1  UNL1       -0.0374
     14 C           5.0725   -1.0976    0.0000 C.3     1  UNL1        0.0075
     15 C           2.7624   -1.9508    0.0000 C.3     1  UNL1       -0.0561
     16 C           2.2725   -1.0791    0.0000 C.3     1  UNL1       -0.0561
     17 H           1.8855    1.7608    0.0000 H       1  UNL1        0.0349
     18 H           4.7650    1.3432    0.0000 H       1  UNL1        0.0278
     19 H           4.3665    2.0335    0.0000 H       1  UNL1        0.0278
     20 H           3.6870    2.4258    0.0000 H       1  UNL1        0.0271
     21 H           2.8899    2.4258    0.0000 H       1  UNL1        0.0271
     22 H           1.8855    0.1408    0.0000 H       1  UNL1        0.0575
     23 H           2.1709    1.5469    0.0000 H       1  UNL1        0.0236
     24 H           1.4040    1.1218    0.0000 H       1  UNL1        0.0236
     25 H           1.8291    0.3549    0.0000 H       1  UNL1        0.0236
     26 H           2.1323   -0.0275    0.0000 H       1  UNL1        0.0236
     27 H           2.4465   -0.8461    0.0000 H       1  UNL1        0.0236
     28 H           3.2651   -0.5319    0.0000 H       1  UNL1        0.0236
     29 H           3.7695   -2.0913    0.0000 H       1  UNL1        0.0277
     30 H           4.5677   -2.0944    0.0000 H       1  UNL1        0.0277
     31 H           5.2860   -1.6797    0.0000 H       1  UNL1        0.0342
     32 H           5.6825   -0.9868    0.0000 H       1  UNL1        0.0342
     33 H           2.2291   -1.6347    0.0000 H       1  UNL1        0.0238
     34 H           2.4462   -2.4842    0.0000 H       1  UNL1        0.0238
     35 H           3.2957   -2.2670    0.0000 H       1  UNL1        0.0238
     36 H           2.2796   -0.4591    0.0000 H       1  UNL1        0.0238
     37 H           1.6525   -1.0719    0.0000 H       1  UNL1        0.0238
     38 H           2.2653   -1.6991    0.0000 H       1  UNL1        0.0238
@<TRIPOS>BOND
     1     1    10    2
     2     2     3    1
     3     2     5    1
     4     2     6    1
     5     2    10    1
     6     3     4    1
     7     3    11    1
     8     3    12    1
     9     4     7    1
    10     4     9    1
    11     4    17    1
    12     5     8    1
    13     5     9    2
    14     6     7    1
    15     6    18    1
    16     6    19    1
    17     7    20    1
    18     7    21    1
    19     8    13    1
    20     8    15    1
    21     8    16    1
    22     9    22    1
    23    10    14    1
    24    11    23    1
    25    11    24    1
    26    11    25    1
    27    12    26    1
    28    12    27    1
    29    12    28    1
    30    13    14    1
    31    13    29    1
    32    13    30    1
    33    14    31    1
    34    14    32    1
    35    15    33    1
    36    15    34    1
    37    15    35    1
    38    16    36    1
    39    16    37    1
    40    16    38    1
