@<TRIPOS>MOLECULE
IMPHY003329
 36 39 0 0 0
SMALL
GASTEIGER

@<TRIPOS>ATOM
      1 O           3.7782    1.3036    0.0000 O.3     1  UNL1       -0.4908
      2 O           5.5442    2.3414    0.0000 O.3     1  UNL1       -0.4914
      3 O           8.1630   -0.2772    0.0000 O.2     1  UNL1       -0.2817
      4 O           8.1118   -2.2576    0.0000 O.2     1  UNL1       -0.2663
      5 N           6.3903   -2.2248    0.0000 N.am    1  UNL1       -0.2783
      6 C           5.5321   -0.7278    0.0000 C.ar    1  UNL1        0.0186
      7 C           4.6660   -0.2278    0.0000 C.ar    1  UNL1        0.0376
      8 C           5.5321   -1.7278    0.0000 C.ar    1  UNL1        0.0429
      9 C           3.8000   -0.7278    0.0000 C.ar    1  UNL1       -0.0064
     10 C           6.4421   -0.2210    0.0000 C.ar    1  UNL1        0.0401
     11 C           3.8000   -1.7278    0.0000 C.ar    1  UNL1       -0.0154
     12 C           4.6500    0.8137    0.0000 C.ar    1  UNL1        0.1698
     13 C           4.6660   -2.2278    0.0000 C.ar    1  UNL1       -0.0321
     14 C           6.4501    0.8206    0.0000 C.ar    1  UNL1       -0.0047
     15 C           5.5480    1.3414    0.0000 C.ar    1  UNL1        0.1628
     16 C           7.2814   -0.7492    0.0000 C.2     1  UNL1        0.2483
     17 C           2.9061   -0.1932    0.0000 C.ar    1  UNL1       -0.0533
     18 C           7.2558   -1.7406    0.0000 C.2     1  UNL1        0.2886
     19 C           2.9061   -2.2625    0.0000 C.ar    1  UNL1       -0.0540
     20 C           2.0000   -0.7070    0.0000 C.ar    1  UNL1       -0.0611
     21 C           2.0000   -1.7486    0.0000 C.ar    1  UNL1       -0.0612
     22 C           3.7667    2.3036    0.0000 C.3     1  UNL1        0.0790
     23 C           6.4082    2.8448    0.0000 C.3     1  UNL1        0.0790
     24 H           4.6660   -2.8478    0.0000 H       1  UNL1        0.0642
     25 H           6.9882    1.1285    0.0000 H       1  UNL1        0.0663
     26 H           6.3857   -2.8448    0.0000 H       1  UNL1        0.1552
     27 H           2.9132    0.4268    0.0000 H       1  UNL1        0.0624
     28 H           2.9132   -2.8825    0.0000 H       1  UNL1        0.0624
     29 H           1.4643   -0.3950    0.0000 H       1  UNL1        0.0618
     30 H           1.4643   -2.0607    0.0000 H       1  UNL1        0.0618
     31 H           4.3866    2.3107    0.0000 H       1  UNL1        0.0660
     32 H           3.7595    2.9235    0.0000 H       1  UNL1        0.0660
     33 H           3.1467    2.2964    0.0000 H       1  UNL1        0.0660
     34 H           6.7203    2.3090    0.0000 H       1  UNL1        0.0660
     35 H           6.9440    3.1568    0.0000 H       1  UNL1        0.0660
     36 H           6.0962    3.3805    0.0000 H       1  UNL1        0.0660
@<TRIPOS>BOND
     1     1    12    1
     2     1    22    1
     3     2    15    1
     4     2    23    1
     5     3    16    2
     6     4    18    2
     7     5     8    1
     8     5    18   am
     9     5    26    1
    10     6     7   ar
    11     6     8   ar
    12     6    10   ar
    13     7     9   ar
    14     7    12   ar
    15     8    13   ar
    16     9    11   ar
    17     9    17   ar
    18    10    14   ar
    19    10    16    1
    20    11    13   ar
    21    11    19   ar
    22    12    15   ar
    23    13    24    1
    24    14    15   ar
    25    14    25    1
    26    16    18    1
    27    17    20   ar
    28    17    27    1
    29    19    21   ar
    30    19    28    1
    31    20    21   ar
    32    20    29    1
    33    21    30    1
    34    22    31    1
    35    22    32    1
    36    22    33    1
    37    23    34    1
    38    23    35    1
    39    23    36    1
