@<TRIPOS>MOLECULE
IMPHY004713
 54 57 0 0 0
SMALL
GASTEIGER

@<TRIPOS>ATOM
      1 O           5.1350    0.5000    0.0000 O.3     1  UNL1       -0.3609
      2 O           4.2690   -2.0000    0.0000 O.3     1  UNL1       -0.3862
      3 O           2.5369   -1.0000    0.0000 O.3     1  UNL1       -0.3865
      4 O           2.5369    1.0000    0.0000 O.3     1  UNL1       -0.3865
      5 O           8.6270   -2.5347    0.0000 O.3     1  UNL1       -0.4900
      6 O           3.4030    2.5000    0.0000 O.3     1  UNL1       -0.3924
      7 O           6.8671    0.5000    0.0000 O.3     1  UNL1       -0.5055
      8 O           5.1350   -2.5000    0.0000 O.3     1  UNL1       -0.5062
      9 O           8.6155    0.5346    0.0000 O.2     1  UNL1       -0.2910
     10 O          11.2690   -1.9725    0.0000 O.3     1  UNL1       -0.5064
     11 O          12.9895    1.0341    0.0000 O.3     1  UNL1       -0.5066
     12 C           5.1350   -0.5000    0.0000 C.3     1  UNL1        0.1193
     13 C           4.2690   -1.0000    0.0000 C.3     1  UNL1        0.1139
     14 C           3.4030   -0.5000    0.0000 C.3     1  UNL1        0.1121
     15 C           3.4030    0.5000    0.0000 C.3     1  UNL1        0.1117
     16 C           4.2690    1.0000    0.0000 C.3     1  UNL1        0.1108
     17 C           6.0010   -1.0000    0.0000 C.ar    1  UNL1        0.0673
     18 C           4.2690    2.0000    0.0000 C.3     1  UNL1        0.0729
     19 C           6.8671   -0.5000    0.0000 C.ar    1  UNL1        0.1401
     20 C           7.7331   -1.0000    0.0000 C.ar    1  UNL1        0.1016
     21 C           6.0010   -2.0000    0.0000 C.ar    1  UNL1        0.1296
     22 C           9.5331   -0.9792    0.0000 C.3     1  UNL1        0.0847
     23 C           7.7331   -2.0000    0.0000 C.ar    1  UNL1        0.1380
     24 C           8.6270   -0.4653    0.0000 C.2     1  UNL1        0.1809
     25 C           6.8671   -2.5000    0.0000 C.ar    1  UNL1        0.0228
     26 C           9.5331   -2.0208    0.0000 C.3     1  UNL1        0.1036
     27 C          10.3972   -0.4758    0.0000 C.ar    1  UNL1        0.0081
     28 C          11.2651   -0.9725    0.0000 C.ar    1  UNL1        0.1243
     29 C          10.3933    0.5241    0.0000 C.ar    1  UNL1       -0.0509
     30 C          12.1292   -0.4692    0.0000 C.ar    1  UNL1        0.0216
     31 C          11.2574    1.0275    0.0000 C.ar    1  UNL1       -0.0197
     32 C          12.1254    0.5308    0.0000 C.ar    1  UNL1        0.1203
     33 H           5.1350   -1.3500    0.0000 H       1  UNL1        0.0676
     34 H           3.7320   -1.3100    0.0000 H       1  UNL1        0.0649
     35 H           2.8660   -0.1900    0.0000 H       1  UNL1        0.0647
     36 H           3.4030    1.1200    0.0000 H       1  UNL1        0.0647
     37 H           4.8059    1.3100    0.0000 H       1  UNL1        0.0646
     38 H           4.8796    1.8923    0.0000 H       1  UNL1        0.0584
     39 H           4.4810    2.5826    0.0000 H       1  UNL1        0.0584
     40 H           9.5295   -0.3592    0.0000 H       1  UNL1        0.0464
     41 H           3.7320   -2.3100    0.0000 H       1  UNL1        0.2100
     42 H           2.0000   -0.6900    0.0000 H       1  UNL1        0.2100
     43 H           2.0000    0.6900    0.0000 H       1  UNL1        0.2100
     44 H           6.8671   -3.1200    0.0000 H       1  UNL1        0.0691
     45 H           9.7422   -2.6045    0.0000 H       1  UNL1        0.0707
     46 H          10.1440   -1.9147    0.0000 H       1  UNL1        0.0707
     47 H           3.4030    3.1200    0.0000 H       1  UNL1        0.2095
     48 H           7.4040    0.8100    0.0000 H       1  UNL1        0.2922
     49 H           5.1350   -3.1200    0.0000 H       1  UNL1        0.2922
     50 H           9.8552    0.8321    0.0000 H       1  UNL1        0.0623
     51 H          12.6674   -0.7771    0.0000 H       1  UNL1        0.0691
     52 H          11.2550    1.6475    0.0000 H       1  UNL1        0.0654
     53 H          11.8071   -2.2804    0.0000 H       1  UNL1        0.2921
     54 H          12.9871    1.6542    0.0000 H       1  UNL1        0.2921
@<TRIPOS>BOND
     1     1    12    1
     2     1    16    1
     3     2    13    1
     4     2    41    1
     5    14     3    1
     6     3    42    1
     7    15     4    1
     8     4    43    1
     9     5    23    1
    10     5    26    1
    11     6    18    1
    12     6    47    1
    13     7    19    1
    14     7    48    1
    15     8    21    1
    16     8    49    1
    17     9    24    2
    18    10    28    1
    19    10    53    1
    20    11    32    1
    21    11    54    1
    22    12    13    1
    23    12    17    1
    24    12    33    1
    25    13    14    1
    26    13    34    1
    27    14    15    1
    28    14    35    1
    29    15    16    1
    30    15    36    1
    31    16    18    1
    32    16    37    1
    33    17    19   ar
    34    17    21   ar
    35    18    38    1
    36    18    39    1
    37    19    20   ar
    38    20    23   ar
    39    20    24    1
    40    21    25   ar
    41    22    24    1
    42    22    26    1
    43    22    27    1
    44    22    40    1
    45    23    25   ar
    46    25    44    1
    47    26    45    1
    48    26    46    1
    49    27    28   ar
    50    27    29   ar
    51    28    30   ar
    52    29    31   ar
    53    29    50    1
    54    30    32   ar
    55    30    51    1
    56    31    32   ar
    57    31    52    1
