@<TRIPOS>MOLECULE
IMPHY008136
 38 40 0 0 0
SMALL
GASTEIGER

@<TRIPOS>ATOM
      1 O           8.9903    0.6381    0.0000 O.3     1  UNL1       -0.4582
      2 O           9.8925   -1.5618    0.0000 O.3     1  UNL1       -0.3852
      3 O           6.3981    1.7539    0.0000 O.3     1  UNL1       -0.5052
      4 O           7.8177    1.8363    0.0000 O.2     1  UNL1       -0.2448
      5 O           4.6497    1.7885    0.0000 O.3     1  UNL1       -0.5059
      6 O           2.8680   -1.2703    0.0000 O.3     1  UNL1       -0.4950
      7 C           8.9903   -1.1304    0.0000 C.3     1  UNL1        0.1011
      8 C           8.0350   -1.3524    0.0000 C.3     1  UNL1        0.0052
      9 C           7.2641   -0.7461    0.0000 C.ar    1  UNL1       -0.0264
     10 C           9.4147   -0.2461    0.0000 C.3     1  UNL1        0.1214
     11 C           7.2641    0.2539    0.0000 C.ar    1  UNL1        0.1042
     12 C           9.2155   -2.1047    0.0000 C.3     1  UNL1       -0.0326
     13 C           6.3981   -1.2461    0.0000 C.ar    1  UNL1       -0.0495
     14 C           5.5320   -0.7461    0.0000 C.ar    1  UNL1       -0.0071
     15 C           5.5320    0.2539    0.0000 C.ar    1  UNL1        0.0660
     16 C           6.3981    0.7539    0.0000 C.ar    1  UNL1        0.1423
     17 C           8.0350    0.8602    0.0000 C.2     1  UNL1        0.3431
     18 C           4.6381   -1.2808    0.0000 C.ar    1  UNL1       -0.0119
     19 C           4.6381    0.7886    0.0000 C.ar    1  UNL1        0.1315
     20 C           3.7320   -0.7669    0.0000 C.ar    1  UNL1        0.1242
     21 C           3.7320    0.2747    0.0000 C.ar    1  UNL1        0.0223
     22 C           2.0000   -0.7736    0.0000 C.3     1  UNL1        0.0788
     23 H           7.5525   -1.7418    0.0000 H       1  UNL1        0.0342
     24 H           8.3068   -1.9097    0.0000 H       1  UNL1        0.0342
     25 H           9.8996   -0.6325    0.0000 H       1  UNL1        0.0727
     26 H           9.8996    0.1402    0.0000 H       1  UNL1        0.0727
     27 H           8.6114   -2.2443    0.0000 H       1  UNL1        0.0258
     28 H           9.3551   -2.7088    0.0000 H       1  UNL1        0.0258
     29 H           9.8196   -1.9651    0.0000 H       1  UNL1        0.0258
     30 H           6.3981   -1.8661    0.0000 H       1  UNL1        0.0627
     31 H          10.4038   -1.2112    0.0000 H       1  UNL1        0.2103
     32 H           4.6453   -1.9007    0.0000 H       1  UNL1        0.0660
     33 H           3.1963    0.5868    0.0000 H       1  UNL1        0.0691
     34 H           5.8611    2.0639    0.0000 H       1  UNL1        0.2922
     35 H           4.1164    2.1047    0.0000 H       1  UNL1        0.2922
     36 H           2.3079   -0.2355    0.0000 H       1  UNL1        0.0660
     37 H           1.4619   -0.4657    0.0000 H       1  UNL1        0.0660
     38 H           1.6921   -1.3117    0.0000 H       1  UNL1        0.0660
@<TRIPOS>BOND
     1     1    10    1
     2     1    17    1
     3     2     7    1
     4     2    31    1
     5     3    16    1
     6     3    34    1
     7     4    17    2
     8     5    19    1
     9     5    35    1
    10     6    20    1
    11     6    22    1
    12     7     8    1
    13     7    10    1
    14     7    12    1
    15     8     9    1
    16     8    23    1
    17     8    24    1
    18     9    11   ar
    19     9    13   ar
    20    10    25    1
    21    10    26    1
    22    11    16   ar
    23    11    17    1
    24    12    27    1
    25    12    28    1
    26    12    29    1
    27    13    14   ar
    28    13    30    1
    29    14    15   ar
    30    14    18   ar
    31    15    16   ar
    32    15    19   ar
    33    18    20   ar
    34    18    32    1
    35    19    21   ar
    36    20    21   ar
    37    21    33    1
    38    22    36    1
    39    22    37    1
    40    22    38    1
