@<TRIPOS>MOLECULE
IMPHY008666
 48 52 0 0 0
SMALL
GASTEIGER

@<TRIPOS>ATOM
      1 O           6.2307    1.1012    0.0000 O.3     1  UNL1       -0.4528
      2 O           2.4693   -1.2109    0.0000 O.3     1  UNL1       -0.3817
      3 O           3.6606   -2.4480    0.0000 O.3     1  UNL1       -0.3886
      4 O           9.1753    0.0006    0.0000 O.3     1  UNL1       -0.3867
      5 O           8.6525    1.6578    0.0000 O.2     1  UNL1       -0.2501
      6 O           5.1539    2.3296    0.0000 O.3     1  UNL1       -0.4804
      7 O           6.8798    2.1841    0.0000 O.2     1  UNL1       -0.2507
      8 C           5.1626    0.2130    0.0000 C.3     1  UNL1       -0.0024
      9 C           5.4645   -0.6543    0.0000 C.3     1  UNL1        0.0122
     10 C           6.3766   -0.6327    0.0000 C.3     1  UNL1        0.1398
     11 C           6.6396    0.2413    0.0000 C.3     1  UNL1        0.0345
     12 C           5.8908    0.7622    0.0000 C.3     1  UNL1        0.0705
     13 C           4.4666   -0.6195    0.0000 C.3     1  UNL1       -0.0106
     14 C           7.5569    0.4574    0.0000 C.3     1  UNL1        0.1017
     15 C           3.4137   -0.8820    0.0000 C.3     1  UNL1        0.1130
     16 C           4.2957    0.5176    0.0000 C.3     1  UNL1       -0.0223
     17 C           4.9743   -1.4308    0.0000 C.3     1  UNL1       -0.0165
     18 C           4.0620   -1.5321    0.0000 C.3     1  UNL1        0.0881
     19 C           3.5181    0.0305    0.0000 C.2     1  UNL1       -0.0425
     20 C           7.0144   -1.3472    0.0000 C.2     1  UNL1       -0.0418
     21 C           8.2020   -0.2288    0.0000 C.3     1  UNL1        0.0893
     22 C           7.8217    1.1012    0.0000 C.2     1  UNL1        0.3171
     23 C           5.9748    1.7586    0.0000 C.2     1  UNL1        0.3088
     24 C           8.5403    0.6385    0.0000 C.3     1  UNL1       -0.0462
     25 C           7.9305   -1.1315    0.0000 C.2     1  UNL1       -0.0550
     26 C           2.7145    0.6257    0.0000 C.2     1  UNL1       -0.0967
     27 H           5.7703   -1.1937    0.0000 H       1  UNL1        0.0349
     28 H           6.7556    0.8504    0.0000 H       1  UNL1        0.0362
     29 H           5.3480    1.0618    0.0000 H       1  UNL1        0.0423
     30 H           4.4237   -1.2380    0.0000 H       1  UNL1        0.0303
     31 H           5.0417   -0.8510    0.0000 H       1  UNL1        0.0303
     32 H           4.6263    1.0421    0.0000 H       1  UNL1        0.0317
     33 H           3.8579    0.9566    0.0000 H       1  UNL1        0.0317
     34 H           4.9037   -2.0468    0.0000 H       1  UNL1        0.0295
     35 H           5.5591   -1.6367    0.0000 H       1  UNL1        0.0295
     36 H           4.4293   -2.0315    0.0000 H       1  UNL1        0.0625
     37 H           6.8280   -1.9386    0.0000 H       1  UNL1        0.0609
     38 H           8.6269   -0.6803    0.0000 H       1  UNL1        0.0649
     39 H           8.6526    0.0288    0.0000 H       1  UNL1        0.0241
     40 H           9.1501    0.7509    0.0000 H       1  UNL1        0.0241
     41 H           8.4280    1.2483    0.0000 H       1  UNL1        0.0241
     42 H           8.3554   -1.5830    0.0000 H       1  UNL1        0.0596
     43 H           2.0000   -0.8057    0.0000 H       1  UNL1        0.2107
     44 H           2.7849    1.2417    0.0000 H       1  UNL1        0.0535
     45 H           2.1458    0.3787    0.0000 H       1  UNL1        0.0535
     46 H           4.0279   -2.9474    0.0000 H       1  UNL1        0.2099
     47 H           9.6003   -0.4509    0.0000 H       1  UNL1        0.2102
     48 H           5.2059    2.9474    0.0000 H       1  UNL1        0.2951
@<TRIPOS>BOND
     1     1    10    1
     2     1    22    1
     3     2    15    1
     4     2    43    1
     5     3    18    1
     6     3    46    1
     7     4    21    1
     8     4    47    1
     9     5    22    2
    10     6    23    1
    11     6    48    1
    12     7    23    2
    13     8     9    1
    14     8    12    1
    15     8    13    1
    16     8    16    1
    17     9    10    1
    18     9    17    1
    19     9    27    1
    20    10    11    1
    21    10    20    1
    22    11    12    1
    23    11    14    1
    24    11    28    1
    25    12    23    1
    26    12    29    1
    27    13    15    1
    28    13    30    1
    29    13    31    1
    30    14    21    1
    31    14    22    1
    32    14    24    1
    33    15    18    1
    34    15    19    1
    35    16    19    1
    36    16    32    1
    37    16    33    1
    38    17    18    1
    39    17    34    1
    40    17    35    1
    41    18    36    1
    42    19    26    2
    43    20    25    2
    44    20    37    1
    45    21    25    1
    46    21    38    1
    47    24    39    1
    48    24    40    1
    49    24    41    1
    50    25    42    1
    51    26    44    1
    52    26    45    1
