@<TRIPOS>MOLECULE
IMPHY016789
 28 27 0 0 0
SMALL
GASTEIGER

@<TRIPOS>ATOM
      1 S          10.6603   -0.5000    0.0000 S.2     1  UNL1        0.0203
      2 N           8.9282    0.5000    0.0000 N.2     1  UNL1       -0.2346
      3 C           5.4641    0.5000    0.0000 C.3     1  UNL1       -0.0530
      4 C           4.5981    0.0000    0.0000 C.3     1  UNL1       -0.0531
      5 C           6.3301    0.0000    0.0000 C.3     1  UNL1       -0.0514
      6 C           3.7320    0.5000    0.0000 C.3     1  UNL1       -0.0533
      7 C           7.1962    0.5000    0.0000 C.3     1  UNL1       -0.0327
      8 C           2.8660   -0.0000    0.0000 C.3     1  UNL1       -0.0559
      9 C           8.0622    0.0000    0.0000 C.3     1  UNL1        0.0495
     10 C           2.0000    0.5000    0.0000 C.3     1  UNL1       -0.0653
     11 C           9.7942   -0.0000    0.0000 C.1     1  UNL1        0.0358
     12 H           5.8626    0.9749    0.0000 H       1  UNL1        0.0265
     13 H           5.0656    0.9749    0.0000 H       1  UNL1        0.0265
     14 H           4.1996   -0.4749    0.0000 H       1  UNL1        0.0265
     15 H           4.9966   -0.4749    0.0000 H       1  UNL1        0.0265
     16 H           5.9316   -0.4749    0.0000 H       1  UNL1        0.0266
     17 H           6.7287   -0.4749    0.0000 H       1  UNL1        0.0266
     18 H           4.1306    0.9749    0.0000 H       1  UNL1        0.0265
     19 H           3.3335    0.9749    0.0000 H       1  UNL1        0.0265
     20 H           7.5947    0.9749    0.0000 H       1  UNL1        0.0283
     21 H           6.7976    0.9749    0.0000 H       1  UNL1        0.0283
     22 H           2.4675   -0.4749    0.0000 H       1  UNL1        0.0263
     23 H           3.2646   -0.4749    0.0000 H       1  UNL1        0.0263
     24 H           7.6636   -0.4749    0.0000 H       1  UNL1        0.0516
     25 H           8.4607   -0.4749    0.0000 H       1  UNL1        0.0516
     26 H           2.3100    1.0369    0.0000 H       1  UNL1        0.0230
     27 H           1.4631    0.8100    0.0000 H       1  UNL1        0.0230
     28 H           1.6900   -0.0369    0.0000 H       1  UNL1        0.0230
@<TRIPOS>BOND
     1     1    11    2
     2     2     9    1
     3     2    11    2
     4     3     4    1
     5     3     5    1
     6     3    12    1
     7     3    13    1
     8     4     6    1
     9     4    14    1
    10     4    15    1
    11     5     7    1
    12     5    16    1
    13     5    17    1
    14     6     8    1
    15     6    18    1
    16     6    19    1
    17     7     9    1
    18     7    20    1
    19     7    21    1
    20     8    10    1
    21     8    22    1
    22     8    23    1
    23     9    24    1
    24     9    25    1
    25    10    26    1
    26    10    27    1
    27    10    28    1
