@<TRIPOS>MOLECULE
IMPHY014144
 57 58 0 0 0
SMALL
GASTEIGER

@<TRIPOS>ATOM
      1 O           7.7103   -0.7055    0.0000 O.3     1  UNL1       -0.4532
      2 O           5.2552    0.3332    0.0000 O.3     1  UNL1       -0.4569
      3 O           3.3000    0.5992    0.0000 O.3     1  UNL1       -0.3874
      4 O           9.2939    0.0992    0.0000 O.2     1  UNL1       -0.2453
      5 O           6.4634   -1.1065    0.0000 O.2     1  UNL1       -0.2452
      6 O           3.6276   -2.4859    0.0000 O.3     1  UNL1       -0.4598
      7 O           2.0000   -1.8935    0.0000 O.2     1  UNL1       -0.2512
      8 C           6.7641    0.5992    0.0000 C.3     1  UNL1        0.0683
      9 C           5.8980    1.0992    0.0000 C.3     1  UNL1        0.1177
     10 C           6.7641   -0.4008    0.0000 C.3     1  UNL1        0.1322
     11 C           5.8980    2.0992    0.0000 C.3     1  UNL1        0.0061
     12 C           7.7103    0.9039    0.0000 C.2     1  UNL1        0.0400
     13 C           5.8980   -0.9008    0.0000 C.2     1  UNL1       -0.0442
     14 C           5.0320    2.5992    0.0000 C.2     1  UNL1       -0.0706
     15 C           8.2939    0.0992    0.0000 C.2     1  UNL1        0.3357
     16 C           5.0320   -0.4008    0.0000 C.2     1  UNL1       -0.0703
     17 C           5.0320    0.5992    0.0000 C.3     1  UNL1       -0.0021
     18 C           4.1660    1.0992    0.0000 C.3     1  UNL1        0.0772
     19 C           4.1660    2.0992    0.0000 C.2     1  UNL1       -0.0565
     20 C           8.0209    1.8544    0.0000 C.2     1  UNL1       -0.0882
     21 C           5.0320    3.5992    0.0000 C.3     1  UNL1       -0.0436
     22 C           4.0472   -0.5744    0.0000 C.3     1  UNL1       -0.0436
     23 C           5.5973   -0.6065    0.0000 C.2     1  UNL1        0.3384
     24 C           4.9545   -1.3726    0.0000 C.2     1  UNL1        0.0694
     25 C           3.9696   -1.5462    0.0000 C.3     1  UNL1        0.1238
     26 C           5.2965   -2.3123    0.0000 C.2     1  UNL1       -0.0739
     27 C           4.6537   -3.0783    0.0000 C.3     1  UNL1       -0.0459
     28 C           2.6428   -2.6595    0.0000 C.2     1  UNL1        0.3043
     29 C           2.3007   -3.5992    0.0000 C.3     1  UNL1        0.0332
     30 H           6.8297    1.2157    0.0000 H       1  UNL1        0.0427
     31 H           5.3154    1.3113    0.0000 H       1  UNL1        0.0744
     32 H           6.8297   -1.0173    0.0000 H       1  UNL1        0.0787
     33 H           6.5086    1.9915    0.0000 H       1  UNL1        0.0346
     34 H           6.1101    2.6818    0.0000 H       1  UNL1        0.0346
     35 H           5.8980   -1.5208    0.0000 H       1  UNL1        0.0608
     36 H           5.6426    0.4915    0.0000 H       1  UNL1        0.0338
     37 H           5.2441    1.1818    0.0000 H       1  UNL1        0.0338
     38 H           4.1660    0.4792    0.0000 H       1  UNL1        0.0641
     39 H           3.6291    2.4092    0.0000 H       1  UNL1        0.0597
     40 H           8.6276    1.9823    0.0000 H       1  UNL1        0.0540
     41 H           7.6069    2.3159    0.0000 H       1  UNL1        0.0540
     42 H           5.6520    3.5992    0.0000 H       1  UNL1        0.0274
     43 H           5.0320    4.2192    0.0000 H       1  UNL1        0.0274
     44 H           4.4120    3.5992    0.0000 H       1  UNL1        0.0274
     45 H           3.9396    0.0362    0.0000 H       1  UNL1        0.0274
     46 H           3.4366   -0.6821    0.0000 H       1  UNL1        0.0274
     47 H           4.1548   -1.1850    0.0000 H       1  UNL1        0.0274
     48 H           2.7630    0.9092    0.0000 H       1  UNL1        0.2102
     49 H           3.9697   -0.9262    0.0000 H       1  UNL1        0.0751
     50 H           3.3591   -1.4385    0.0000 H       1  UNL1        0.0751
     51 H           5.9072   -2.4199    0.0000 H       1  UNL1        0.0575
     52 H           4.1788   -2.6798    0.0000 H       1  UNL1        0.0272
     53 H           4.2552   -3.5533    0.0000 H       1  UNL1        0.0272
     54 H           5.1287   -3.4769    0.0000 H       1  UNL1        0.0272
     55 H           1.7181   -3.3872    0.0000 H       1  UNL1        0.0342
     56 H           2.0887   -4.1818    0.0000 H       1  UNL1        0.0342
     57 H           2.8834   -3.8112    0.0000 H       1  UNL1        0.0342
@<TRIPOS>BOND
     1     1    10    1
     2     1    15    1
     3     2     9    1
     4     2    23    1
     5     3    18    1
     6     3    48    1
     7     4    15    2
     8     5    23    2
     9     6    25    1
    10     6    28    1
    11     7    28    2
    12     8     9    1
    13     8    10    1
    14     8    12    1
    15     8    30    1
    16     9    11    1
    17     9    31    1
    18    10    13    1
    19    10    32    1
    20    11    14    1
    21    11    33    1
    22    11    34    1
    23    12    15    1
    24    12    20    2
    25    13    16    2
    26    13    35    1
    27    14    19    2
    28    14    21    1
    29    16    17    1
    30    16    22    1
    31    17    18    1
    32    17    36    1
    33    17    37    1
    34    18    19    1
    35    18    38    1
    36    19    39    1
    37    20    40    1
    38    20    41    1
    39    21    42    1
    40    21    43    1
    41    21    44    1
    42    22    45    1
    43    22    46    1
    44    22    47    1
    45    23    24    1
    46    24    25    1
    47    24    26    2
    48    25    49    1
    49    25    50    1
    50    26    27    1
    51    26    51    1
    52    27    52    1
    53    27    53    1
    54    27    54    1
    55    28    29    1
    56    29    55    1
    57    29    56    1
    58    29    57    1
