@<TRIPOS>MOLECULE
IMPHY000269
 59 63 0 0 0
SMALL
GASTEIGER

@<TRIPOS>ATOM
      1 O           5.6256    0.6820    0.0000 O.2     1  UNL1       -0.2962
      2 O           2.5719   -3.2546    0.0000 O.3     1  UNL1       -0.3918
      3 O           9.2232    3.2546    0.0000 O.3     1  UNL1       -0.4571
      4 O          10.9179    2.7039    0.0000 O.2     1  UNL1       -0.2456
      5 C           6.8576   -1.1246    0.0000 C.3     1  UNL1        0.0329
      6 C           5.9337   -0.7420    0.0000 C.3     1  UNL1       -0.0230
      7 C           5.0977   -1.3632    0.0000 C.3     1  UNL1       -0.0254
      8 C           5.2256   -2.3970    0.0000 C.3     1  UNL1       -0.0330
      9 C           6.8576    1.4885    0.0000 C.3     1  UNL1        0.0333
     10 C           7.0095   -2.1551    0.0000 C.3     1  UNL1       -0.0401
     11 C           5.5510    0.1819    0.0000 C.3     1  UNL1       -0.0479
     12 C           7.7815   -0.7420    0.0000 C.3     1  UNL1       -0.0398
     13 C           6.4916    0.1819    0.0000 C.2     1  UNL1        0.1461
     14 C           6.1880   -2.7956    0.0000 C.3     1  UNL1       -0.0487
     15 C           5.9337    1.1058    0.0000 C.3     1  UNL1       -0.0400
     16 C           7.7815    1.1058    0.0000 C.3     1  UNL1       -0.0041
     17 C           4.1051   -0.9250    0.0000 C.3     1  UNL1       -0.0448
     18 C           8.1642    0.1819    0.0000 C.3     1  UNL1       -0.0446
     19 C           4.3700   -3.0641    0.0000 C.3     1  UNL1       -0.0235
     20 C           4.6428   -0.4727    0.0000 C.3     1  UNL1       -0.0590
     21 C           3.2343   -1.5721    0.0000 C.3     1  UNL1       -0.0263
     22 C           3.3676   -2.6489    0.0000 C.3     1  UNL1        0.0555
     23 C           6.8576    2.4885    0.0000 C.3     1  UNL1       -0.0523
     24 C           8.4886    1.8129    0.0000 C.2     1  UNL1       -0.0219
     25 C           8.3322    2.8006    0.0000 C.3     1  UNL1        0.1147
     26 C           9.4763    1.6565    0.0000 C.2     1  UNL1        0.0252
     27 C           9.9303    2.5475    0.0000 C.2     1  UNL1        0.3323
     28 H           5.1484   -0.4167    0.0000 H       1  UNL1        0.0316
     29 H           5.3398   -3.2393    0.0000 H       1  UNL1        0.0307
     30 H           7.3014   -2.7021    0.0000 H       1  UNL1        0.0275
     31 H           7.5983   -1.9611    0.0000 H       1  UNL1        0.0275
     32 H           5.0592    0.5594    0.0000 H       1  UNL1        0.0269
     33 H           5.0592   -0.1955    0.0000 H       1  UNL1        0.0269
     34 H           7.8624   -1.3566    0.0000 H       1  UNL1        0.0275
     35 H           8.3962   -0.8229    0.0000 H       1  UNL1        0.0275
     36 H           5.8562   -3.3194    0.0000 H       1  UNL1        0.0268
     37 H           6.6472   -3.2121    0.0000 H       1  UNL1        0.0268
     38 H           5.8528    1.7205    0.0000 H       1  UNL1        0.0275
     39 H           5.3190    1.1867    0.0000 H       1  UNL1        0.0275
     40 H           7.6605    1.7139    0.0000 H       1  UNL1        0.0356
     41 H           4.4489   -0.4090    0.0000 H       1  UNL1        0.0271
     42 H           3.6556   -0.4979    0.0000 H       1  UNL1        0.0271
     43 H           8.6560   -0.1955    0.0000 H       1  UNL1        0.0272
     44 H           8.6560    0.5594    0.0000 H       1  UNL1        0.0272
     45 H           4.0382   -3.5879    0.0000 H       1  UNL1        0.0293
     46 H           4.8292   -3.4806    0.0000 H       1  UNL1        0.0293
     47 H           5.1949   -0.1907    0.0000 H       1  UNL1        0.0235
     48 H           4.3607    0.0794    0.0000 H       1  UNL1        0.0235
     49 H           4.0906   -0.7547    0.0000 H       1  UNL1        0.0235
     50 H           2.9551   -1.0185    0.0000 H       1  UNL1        0.0290
     51 H           2.6411   -1.7525    0.0000 H       1  UNL1        0.0290
     52 H           3.4473   -3.2637    0.0000 H       1  UNL1        0.0593
     53 H           7.4776    2.4885    0.0000 H       1  UNL1        0.0239
     54 H           6.8576    3.1085    0.0000 H       1  UNL1        0.0239
     55 H           6.2376    2.4885    0.0000 H       1  UNL1        0.0239
     56 H           8.1100    3.3794    0.0000 H       1  UNL1        0.0746
     57 H           7.7333    2.6401    0.0000 H       1  UNL1        0.0746
     58 H           2.0000   -3.0151    0.0000 H       1  UNL1        0.2098
     59 H           9.7577    1.1040    0.0000 H       1  UNL1        0.0689
@<TRIPOS>BOND
     1     1    13    2
     2    22     2    1
     3     2    58    1
     4     3    25    1
     5     3    27    1
     6     4    27    2
     7     5     6    1
     8     5    10    1
     9     5    12    1
    10     5    13    1
    11     6     7    1
    12     6    11    1
    13     6    28    1
    14     7     8    1
    15     7    17    1
    16     7    20    1
    17     8    14    1
    18     8    19    1
    19     8    29    1
    20     9    13    1
    21     9    15    1
    22     9    16    1
    23     9    23    1
    24    10    14    1
    25    10    30    1
    26    10    31    1
    27    11    15    1
    28    11    32    1
    29    11    33    1
    30    12    18    1
    31    12    34    1
    32    12    35    1
    33    14    36    1
    34    14    37    1
    35    15    38    1
    36    15    39    1
    37    16    18    1
    38    16    24    1
    39    16    40    1
    40    17    21    1
    41    17    41    1
    42    17    42    1
    43    18    43    1
    44    18    44    1
    45    19    22    1
    46    19    45    1
    47    19    46    1
    48    20    47    1
    49    20    48    1
    50    20    49    1
    51    21    22    1
    52    21    50    1
    53    21    51    1
    54    22    52    1
    55    23    53    1
    56    23    54    1
    57    23    55    1
    58    24    25    1
    59    24    26    2
    60    25    56    1
    61    25    57    1
    62    26    27    1
    63    26    59    1
