@<TRIPOS>MOLECULE
IMPHY012604
 30 29 0 0 0
SMALL
GASTEIGER

@<TRIPOS>ATOM
      1 O           8.0622    0.2500    0.0000 O.3     1  UNL1       -0.3947
      2 C           4.5981    0.2500    0.0000 C.3     1  UNL1       -0.0436
      3 C           5.4641    0.7500    0.0000 C.3     1  UNL1       -0.0458
      4 C           6.3301    0.2500    0.0000 C.3     1  UNL1       -0.0204
      5 C           3.7320    0.7500    0.0000 C.3     1  UNL1       -0.0507
      6 C           4.5981   -0.7500    0.0000 C.3     1  UNL1       -0.0624
      7 C           2.8660    0.2500    0.0000 C.3     1  UNL1       -0.0557
      8 C           7.1962    0.7500    0.0000 C.3     1  UNL1        0.0468
      9 C           6.3301   -0.7500    0.0000 C.3     1  UNL1       -0.0603
     10 C           2.0000    0.7500    0.0000 C.3     1  UNL1       -0.0653
     11 H           5.1350   -0.0600    0.0000 H       1  UNL1        0.0298
     12 H           5.8626    1.2250    0.0000 H       1  UNL1        0.0271
     13 H           5.0656    1.2250    0.0000 H       1  UNL1        0.0271
     14 H           6.8671   -0.0600    0.0000 H       1  UNL1        0.0320
     15 H           4.1306    1.2250    0.0000 H       1  UNL1        0.0268
     16 H           3.3335    1.2250    0.0000 H       1  UNL1        0.0268
     17 H           3.9781   -0.7500    0.0000 H       1  UNL1        0.0232
     18 H           4.5981   -1.3700    0.0000 H       1  UNL1        0.0232
     19 H           5.2181   -0.7500    0.0000 H       1  UNL1        0.0232
     20 H           2.4675   -0.2249    0.0000 H       1  UNL1        0.0263
     21 H           3.2646   -0.2249    0.0000 H       1  UNL1        0.0263
     22 H           7.5947    1.2250    0.0000 H       1  UNL1        0.0560
     23 H           6.7976    1.2250    0.0000 H       1  UNL1        0.0560
     24 H           5.7101   -0.7500    0.0000 H       1  UNL1        0.0233
     25 H           6.3301   -1.3700    0.0000 H       1  UNL1        0.0233
     26 H           6.9501   -0.7500    0.0000 H       1  UNL1        0.0233
     27 H           2.3100    1.2869    0.0000 H       1  UNL1        0.0230
     28 H           1.4631    1.0600    0.0000 H       1  UNL1        0.0230
     29 H           1.6900    0.2131    0.0000 H       1  UNL1        0.0230
     30 H           8.5991    0.5600    0.0000 H       1  UNL1        0.2094
@<TRIPOS>BOND
     1     1     8    1
     2     1    30    1
     3     2     3    1
     4     2     5    1
     5     2     6    1
     6     2    11    1
     7     3     4    1
     8     3    12    1
     9     3    13    1
    10     4     8    1
    11     4     9    1
    12     4    14    1
    13     5     7    1
    14     5    15    1
    15     5    16    1
    16     6    17    1
    17     6    18    1
    18     6    19    1
    19     7    10    1
    20     7    20    1
    21     7    21    1
    22     8    22    1
    23     8    23    1
    24     9    24    1
    25     9    25    1
    26     9    26    1
    27    10    27    1
    28    10    28    1
    29    10    29    1
