@<TRIPOS>MOLECULE
IMPHY006468
 48 52 0 0 0
SMALL
GASTEIGER

@<TRIPOS>ATOM
      1 O           9.4117    2.6697    0.0000 O.3     1  UNL1       -0.3947
      2 O           2.8660    1.0542    0.0000 O.3     1  UNL1       -0.4951
      3 N           8.2437   -0.3141    0.0000 N.3     1  UNL1       -0.2865
      4 N           5.9879   -0.7482    0.0000 N.ar    1  UNL1       -0.3564
      5 C           8.2437    0.5542    0.0000 C.3     1  UNL1        0.0208
      6 C           8.2437   -2.0506    0.0000 C.3     1  UNL1       -0.0106
      7 C           8.9957    0.9884    0.0000 C.3     1  UNL1        0.0047
      8 C           7.4918   -0.7482    0.0000 C.3     1  UNL1        0.0520
      9 C           7.4918   -1.6165    0.0000 C.3     1  UNL1       -0.0249
     10 C           7.4918    0.9884    0.0000 C.3     1  UNL1       -0.0093
     11 C           8.9957   -0.7482    0.0000 C.3     1  UNL1        0.0212
     12 C           8.9957   -1.6165    0.0000 C.2     1  UNL1       -0.0562
     13 C           6.7398   -0.3141    0.0000 C.ar    1  UNL1        0.0377
     14 C           6.7398    0.5542    0.0000 C.ar    1  UNL1       -0.0160
     15 C           9.6891    1.7089    0.0000 C.3     1  UNL1        0.0490
     16 C           5.2359    0.5542    0.0000 C.ar    1  UNL1        0.0066
     17 C           9.8617   -2.1165    0.0000 C.2     1  UNL1       -0.0864
     18 C           5.2359   -0.3141    0.0000 C.ar    1  UNL1        0.0472
     19 C           4.4840    0.9884    0.0000 C.ar    1  UNL1       -0.0105
     20 C           9.8617   -3.1165    0.0000 C.3     1  UNL1       -0.0465
     21 C           4.4840   -0.7482    0.0000 C.ar    1  UNL1       -0.0343
     22 C           3.7320    0.5542    0.0000 C.ar    1  UNL1        0.1208
     23 C           3.7320   -0.3141    0.0000 C.ar    1  UNL1       -0.0180
     24 C           2.0000    0.5542    0.0000 C.3     1  UNL1        0.0788
     25 H           8.2437    1.4042    0.0000 H       1  UNL1        0.0470
     26 H           8.2437   -2.9006    0.0000 H       1  UNL1        0.0350
     27 H           9.5975    0.8394    0.0000 H       1  UNL1        0.0344
     28 H           6.8222   -1.2718    0.0000 H       1  UNL1        0.0527
     29 H           6.8812   -1.5088    0.0000 H       1  UNL1        0.0290
     30 H           7.2797   -2.1991    0.0000 H       1  UNL1        0.0290
     31 H           7.8903    1.4633    0.0000 H       1  UNL1        0.0329
     32 H           7.0933    1.4633    0.0000 H       1  UNL1        0.0329
     33 H           9.6063   -0.8559    0.0000 H       1  UNL1        0.0473
     34 H           9.2077   -0.1656    0.0000 H       1  UNL1        0.0473
     35 H          10.0544    1.2080    0.0000 H       1  UNL1        0.0560
     36 H          10.2458    1.9817    0.0000 H       1  UNL1        0.0560
     37 H           5.9879   -1.3682    0.0000 H       1  UNL1        0.1656
     38 H          10.3987   -1.8065    0.0000 H       1  UNL1        0.0569
     39 H           9.8416    3.1165    0.0000 H       1  UNL1        0.2094
     40 H           4.4840    1.6084    0.0000 H       1  UNL1        0.0661
     41 H           9.2417   -3.1165    0.0000 H       1  UNL1        0.0272
     42 H           9.8617   -3.7365    0.0000 H       1  UNL1        0.0272
     43 H          10.4817   -3.1165    0.0000 H       1  UNL1        0.0272
     44 H           4.4840   -1.3682    0.0000 H       1  UNL1        0.0639
     45 H           3.1951   -0.6241    0.0000 H       1  UNL1        0.0655
     46 H           1.6900    1.0912    0.0000 H       1  UNL1        0.0660
     47 H           1.4631    0.2442    0.0000 H       1  UNL1        0.0660
     48 H           2.3100    0.0173    0.0000 H       1  UNL1        0.0660
@<TRIPOS>BOND
     1     1    15    1
     2     1    39    1
     3     2    22    1
     4     2    24    1
     5     3     5    1
     6     3     8    1
     7     3    11    1
     8     4    13   ar
     9     4    18   ar
    10     4    37    1
    11     5     7    1
    12     5    10    1
    13     5    25    1
    14     6     7    1
    15     6     9    1
    16     6    12    1
    17     6    26    1
    18     7    15    1
    19     7    27    1
    20     8     9    1
    21     8    13    1
    22     8    28    1
    23     9    29    1
    24     9    30    1
    25    10    14    1
    26    10    31    1
    27    10    32    1
    28    11    12    1
    29    11    33    1
    30    11    34    1
    31    12    17    2
    32    13    14   ar
    33    14    16   ar
    34    15    35    1
    35    15    36    1
    36    16    18   ar
    37    16    19   ar
    38    17    20    1
    39    17    38    1
    40    18    21   ar
    41    19    22   ar
    42    19    40    1
    43    20    41    1
    44    20    42    1
    45    20    43    1
    46    21    23   ar
    47    21    44    1
    48    22    23   ar
    49    23    45    1
    50    24    46    1
    51    24    47    1
    52    24    48    1
