@<TRIPOS>MOLECULE
IMPHY013926
 39 42 0 0 0
SMALL
GASTEIGER

@<TRIPOS>ATOM
      1 O           3.7288    2.5719    0.0000 O.2     1  UNL1       -0.2674
      2 O           2.0000   -0.6717    0.0000 O.2     1  UNL1       -0.2921
      3 N           5.0352    1.3853    0.0000 N.ar    1  UNL1       -0.3020
      4 N           7.0048   -0.3061    0.0000 N.ar    1  UNL1       -0.2449
      5 C           5.8389    1.9703    0.0000 C.3     1  UNL1        0.0538
      6 C           5.3416    0.4397    0.0000 C.ar    1  UNL1        0.0716
      7 C           6.6446    1.3881    0.0000 C.ar    1  UNL1        0.0003
      8 C           6.3356    0.4371    0.0000 C.ar    1  UNL1        0.0929
      9 C           4.0260    1.6171    0.0000 C.ar    1  UNL1        0.2557
     10 C           4.6600   -0.3398    0.0000 C.ar    1  UNL1       -0.0251
     11 C           3.6457   -0.1315    0.0000 C.ar    1  UNL1        0.0274
     12 C           3.3266    0.8536    0.0000 C.ar    1  UNL1        0.0245
     13 C           7.6228    1.5960    0.0000 C.ar    1  UNL1       -0.0456
     14 C           8.2919    0.8529    0.0000 C.ar    1  UNL1        0.0007
     15 C           7.9829   -0.0982    0.0000 C.ar    1  UNL1        0.0717
     16 C           2.9788   -0.8766    0.0000 C.2     1  UNL1        0.1634
     17 C           2.3494    1.0661    0.0000 C.3     1  UNL1       -0.0339
     18 C           9.3073    1.0851    0.0000 C.ar    1  UNL1       -0.0526
     19 C           3.2906   -1.8268    0.0000 C.3     1  UNL1        0.0076
     20 C           8.6679   -0.8829    0.0000 C.ar    1  UNL1       -0.0357
     21 C          10.0103    0.3165    0.0000 C.ar    1  UNL1       -0.0611
     22 C           9.6884   -0.6742    0.0000 C.ar    1  UNL1       -0.0597
     23 C           2.6237   -2.5719    0.0000 C.3     1  UNL1       -0.0582
     24 H           6.2528    2.4319    0.0000 H       1  UNL1        0.0543
     25 H           5.4234    2.4305    0.0000 H       1  UNL1        0.0543
     26 H           4.8578   -0.9274    0.0000 H       1  UNL1        0.0646
     27 H           7.8144    2.1857    0.0000 H       1  UNL1        0.0628
     28 H           2.4812    1.6719    0.0000 H       1  UNL1        0.0279
     29 H           1.7436    1.1978    0.0000 H       1  UNL1        0.0279
     30 H           2.2176    0.4602    0.0000 H       1  UNL1        0.0279
     31 H           9.4921    1.6770    0.0000 H       1  UNL1        0.0624
     32 H           3.6738   -2.3142    0.0000 H       1  UNL1        0.0342
     33 H           3.8372   -1.5341    0.0000 H       1  UNL1        0.0342
     34 H           8.4695   -1.4703    0.0000 H       1  UNL1        0.0639
     35 H          10.6162    0.4477    0.0000 H       1  UNL1        0.0618
     36 H          10.1015   -1.1365    0.0000 H       1  UNL1        0.0618
     37 H           2.1617   -2.1584    0.0000 H       1  UNL1        0.0234
     38 H           2.2102   -3.0339    0.0000 H       1  UNL1        0.0234
     39 H           3.0857   -2.9854    0.0000 H       1  UNL1        0.0234
@<TRIPOS>BOND
     1     1     9    2
     2     2    16    2
     3     3     5    1
     4     3     6   ar
     5     3     9   ar
     6     4     8   ar
     7     4    15   ar
     8     5     7    1
     9     5    24    1
    10     5    25    1
    11     6     8    1
    12     6    10   ar
    13     7     8   ar
    14     7    13   ar
    15     9    12   ar
    16    10    11   ar
    17    10    26    1
    18    11    12   ar
    19    11    16    1
    20    12    17    1
    21    13    14   ar
    22    13    27    1
    23    14    15   ar
    24    14    18   ar
    25    15    20   ar
    26    16    19    1
    27    17    28    1
    28    17    29    1
    29    17    30    1
    30    18    21   ar
    31    18    31    1
    32    19    23    1
    33    19    32    1
    34    19    33    1
    35    20    22   ar
    36    20    34    1
    37    21    22   ar
    38    21    35    1
    39    22    36    1
    40    23    37    1
    41    23    38    1
    42    23    39    1
