@<TRIPOS>MOLECULE
IMPHY017913
 6 6 0 0 0
SMALL
GASTEIGER

@<TRIPOS>ATOM
      1 C           1.9950   -2.3036    0.0000 C.3     1  UNL1        0.3371
      2 N           2.6600   -1.1518    0.0000 N.2     1  UNL1       -0.2253
      3 C           1.9950    0.0000    0.0000 C.2     1  UNL1        0.1003
      4 C           0.6650    0.0000    0.0000 C.2     1  UNL1        0.0604
      5 C           0.0000   -1.1518    0.0000 C.2     1  UNL1        0.1764
      6 O           0.6650   -2.3036    0.0000 O.2     1  UNL1       -0.4490
@<TRIPOS>BOND
     1     1     2    1
     2     1     6    1
     3     2     3    2
     4     3     4    1
     5     4     5    2
     6     5     6    1
