@<TRIPOS>MOLECULE
IMPHY014082
 31 30 0 0 0
SMALL
GASTEIGER

@<TRIPOS>ATOM
      1 O           2.0000    1.7500    0.0000 O.3     1  UNL1       -0.3950
      2 C           6.3301   -1.7500    0.0000 C.3     1  UNL1       -0.0496
      3 C           7.1962   -1.2500    0.0000 C.3     1  UNL1       -0.0530
      4 C           5.4641   -1.2500    0.0000 C.3     1  UNL1       -0.0348
      5 C           8.0622   -1.7500    0.0000 C.3     1  UNL1       -0.0559
      6 C           4.5981   -1.7500    0.0000 C.2     1  UNL1       -0.0879
      7 C           3.7320   -0.2500    0.0000 C.3     1  UNL1       -0.0327
      8 C           2.8660    0.2500    0.0000 C.3     1  UNL1       -0.0263
      9 C           3.7320   -1.2500    0.0000 C.2     1  UNL1       -0.0879
     10 C           8.9282   -1.2500    0.0000 C.3     1  UNL1       -0.0653
     11 C           2.8660    1.2500    0.0000 C.3     1  UNL1        0.0445
     12 H           5.9316   -2.2250    0.0000 H       1  UNL1        0.0268
     13 H           6.7287   -2.2250    0.0000 H       1  UNL1        0.0268
     14 H           7.5947   -0.7751    0.0000 H       1  UNL1        0.0265
     15 H           6.7976   -0.7751    0.0000 H       1  UNL1        0.0265
     16 H           5.8626   -0.7751    0.0000 H       1  UNL1        0.0307
     17 H           5.0656   -0.7751    0.0000 H       1  UNL1        0.0307
     18 H           7.6636   -2.2250    0.0000 H       1  UNL1        0.0263
     19 H           8.4607   -2.2250    0.0000 H       1  UNL1        0.0263
     20 H           4.5981   -2.3700    0.0000 H       1  UNL1        0.0569
     21 H           4.3426   -0.3577    0.0000 H       1  UNL1        0.0308
     22 H           3.9441    0.3326    0.0000 H       1  UNL1        0.0308
     23 H           2.2554    0.3577    0.0000 H       1  UNL1        0.0290
     24 H           2.6540   -0.3326    0.0000 H       1  UNL1        0.0290
     25 H           3.1951   -1.5600    0.0000 H       1  UNL1        0.0569
     26 H           9.2382   -1.7869    0.0000 H       1  UNL1        0.0230
     27 H           9.4651   -0.9400    0.0000 H       1  UNL1        0.0230
     28 H           8.6182   -0.7131    0.0000 H       1  UNL1        0.0230
     29 H           3.4766    1.1423    0.0000 H       1  UNL1        0.0557
     30 H           3.0781    1.8326    0.0000 H       1  UNL1        0.0557
     31 H           2.0000    2.3700    0.0000 H       1  UNL1        0.2094
@<TRIPOS>BOND
     1     1    11    1
     2     1    31    1
     3     2     3    1
     4     2     4    1
     5     2    12    1
     6     2    13    1
     7     3     5    1
     8     3    14    1
     9     3    15    1
    10     4     6    1
    11     4    16    1
    12     4    17    1
    13     5    10    1
    14     5    18    1
    15     5    19    1
    16     6     9    2
    17     6    20    1
    18     7     8    1
    19     7     9    1
    20     7    21    1
    21     7    22    1
    22     8    11    1
    23     8    23    1
    24     8    24    1
    25     9    25    1
    26    10    26    1
    27    10    27    1
    28    10    28    1
    29    11    29    1
    30    11    30    1
