@<TRIPOS>MOLECULE
IMPHY001002
 57 61 0 0 0
SMALL
GASTEIGER

@<TRIPOS>ATOM
      1 O           2.9785   -0.9577    0.0000 O.3     1  UNL1       -0.3417
      2 O           3.8155   -1.4334    0.0000 O.3     1  UNL1       -0.3850
      3 O           5.4476    1.7094    0.0000 O.3     1  UNL1       -0.3876
      4 O           2.8836   -2.7315    0.0000 O.3     1  UNL1       -0.3639
      5 O           2.8836    3.1503    0.0000 O.3     1  UNL1       -0.3914
      6 C           4.5816   -0.7906    0.0000 C.3     1  UNL1        0.1064
      7 C           4.3723   -1.7625    0.0000 C.3     1  UNL1        0.0561
      8 C           5.4476   -0.2906    0.0000 C.3     1  UNL1       -0.0005
      9 C           5.4476    0.7094    0.0000 C.3     1  UNL1        0.0076
     10 C           3.7155   -0.2906    0.0000 C.3     1  UNL1        0.0973
     11 C           4.5816    1.2094    0.0000 C.3     1  UNL1        0.0799
     12 C           3.3836   -1.8655    0.0000 C.3     1  UNL1        0.1766
     13 C           3.7155    0.7094    0.0000 C.3     1  UNL1        0.0225
     14 C           5.3573   -1.9776    0.0000 C.3     1  UNL1       -0.0253
     15 C           5.1589   -1.1739    0.0000 C.3     1  UNL1        0.0102
     16 C           5.9520   -1.1635    0.0000 C.3     1  UNL1       -0.0431
     17 C           2.9785    1.3764    0.0000 C.3     1  UNL1       -0.0098
     18 C           4.3723    2.1812    0.0000 C.3     1  UNL1        0.0033
     19 C           5.0402   -2.5068    0.0000 C.3     1  UNL1       -0.0516
     20 C           6.3794    1.0724    0.0000 C.3     1  UNL1       -0.0564
     21 C           3.3836    2.2842    0.0000 C.3     1  UNL1        0.0609
     22 C           5.7118   -2.9126    0.0000 C.3     1  UNL1       -0.0431
     23 C           2.0000    1.1702    0.0000 C.3     1  UNL1       -0.0596
     24 C           6.6988   -3.0731    0.0000 C.3     1  UNL1       -0.0624
     25 C           5.0793   -3.6872    0.0000 C.3     1  UNL1       -0.0624
     26 H           6.1837    0.1344    0.0000 H       1  UNL1        0.0336
     27 H           2.8784   -0.1430    0.0000 H       1  UNL1        0.0630
     28 H           2.8784    0.5618    0.0000 H       1  UNL1        0.0358
     29 H           5.9717   -2.0606    0.0000 H       1  UNL1        0.0311
     30 H           5.2802   -1.7819    0.0000 H       1  UNL1        0.0323
     31 H           5.7787   -1.1600    0.0000 H       1  UNL1        0.0323
     32 H           6.3973   -1.5949    0.0000 H       1  UNL1        0.0272
     33 H           6.4408   -0.7821    0.0000 H       1  UNL1        0.0272
     34 H           2.5890    1.8588    0.0000 H       1  UNL1        0.0327
     35 H           4.9888    2.2472    0.0000 H       1  UNL1        0.0318
     36 H           4.3714    2.8012    0.0000 H       1  UNL1        0.0318
     37 H           4.5787   -2.9208    0.0000 H       1  UNL1        0.0238
     38 H           5.4542   -2.9682    0.0000 H       1  UNL1        0.0238
     39 H           5.5016   -2.0927    0.0000 H       1  UNL1        0.0238
     40 H           6.6044    0.4947    0.0000 H       1  UNL1        0.0236
     41 H           6.9571    1.2974    0.0000 H       1  UNL1        0.0236
     42 H           6.1543    1.6501    0.0000 H       1  UNL1        0.0236
     43 H           2.7645    2.2520    0.0000 H       1  UNL1        0.0597
     44 H           5.0998   -2.8131    0.0000 H       1  UNL1        0.0298
     45 H           3.9232   -2.0440    0.0000 H       1  UNL1        0.2103
     46 H           5.4476    2.3294    0.0000 H       1  UNL1        0.2102
     47 H           2.2636   -2.7315    0.0000 H       1  UNL1        0.2128
     48 H           1.8721    1.7769    0.0000 H       1  UNL1        0.0233
     49 H           1.3933    1.0424    0.0000 H       1  UNL1        0.0233
     50 H           2.1279    0.5635    0.0000 H       1  UNL1        0.0233
     51 H           6.5993   -3.6851    0.0000 H       1  UNL1        0.0232
     52 H           7.3108   -3.1726    0.0000 H       1  UNL1        0.0232
     53 H           6.7983   -2.4612    0.0000 H       1  UNL1        0.0232
     54 H           4.5991   -3.2950    0.0000 H       1  UNL1        0.0232
     55 H           4.6871   -4.1674    0.0000 H       1  UNL1        0.0232
     56 H           5.5595   -4.0793    0.0000 H       1  UNL1        0.0232
     57 H           3.1936    3.6872    0.0000 H       1  UNL1        0.2098
@<TRIPOS>BOND
     1     1    10    1
     2     1    12    1
     3     6     2    1
     4     2    45    1
     5    11     3    1
     6     3    46    1
     7     4    12    1
     8     4    47    1
     9    21     5    1
    10     5    57    1
    11     6     7    1
    12     6     8    1
    13     6    10    1
    14     7    12    1
    15     7    14    1
    16     7    19    1
    17     8     9    1
    18     8    16    1
    19     8    26    1
    20     9    11    1
    21     9    15    1
    22     9    20    1
    23    10    13    1
    24    10    27    1
    25    11    13    1
    26    11    18    1
    27    12    15    1
    28    13    17    1
    29    13    28    1
    30    14    16    1
    31    14    22    1
    32    14    29    1
    33    15    30    1
    34    15    31    1
    35    16    32    1
    36    16    33    1
    37    17    21    1
    38    17    23    1
    39    17    34    1
    40    18    21    1
    41    18    35    1
    42    18    36    1
    43    19    37    1
    44    19    38    1
    45    19    39    1
    46    20    40    1
    47    20    41    1
    48    20    42    1
    49    21    43    1
    50    22    24    1
    51    22    25    1
    52    22    44    1
    53    23    48    1
    54    23    49    1
    55    23    50    1
    56    24    51    1
    57    24    52    1
    58    24    53    1
    59    25    54    1
    60    25    55    1
    61    25    56    1
