@<TRIPOS>MOLECULE
IMPHY005141
 68 71 0 0 0
SMALL
GASTEIGER

@<TRIPOS>ATOM
      1 O           5.4641    0.5000    0.0000 O.3     1  UNL1       -0.4615
      2 O           4.5981    2.0000    0.0000 O.2     1  UNL1       -0.2487
      3 O           7.1962    2.5000    0.0000 O.2     1  UNL1       -0.2702
      4 O           2.0000   -0.5000    0.0000 O.2     1  UNL1       -0.2702
      5 N           8.0622    1.0000    0.0000 N.am    1  UNL1       -0.3049
      6 N           3.7320   -0.5000    0.0000 N.am    1  UNL1       -0.2981
      7 C           7.1962    0.5000    0.0000 C.3     1  UNL1        0.0615
      8 C           7.1962   -0.5000    0.0000 C.3     1  UNL1       -0.0060
      9 C           6.3301    1.0000    0.0000 C.3     1  UNL1        0.1111
     10 C           3.7320    0.5000    0.0000 C.3     1  UNL1        0.1246
     11 C           2.8660    1.0000    0.0000 C.3     1  UNL1        0.0012
     12 C           8.0622   -1.0000    0.0000 C.ar    1  UNL1       -0.0455
     13 C           4.5981    1.0000    0.0000 C.2     1  UNL1        0.3280
     14 C           2.8660    2.0000    0.0000 C.ar    1  UNL1       -0.0451
     15 C           8.0622    2.0000    0.0000 C.2     1  UNL1        0.2444
     16 C           8.0622   -2.0000    0.0000 C.ar    1  UNL1       -0.0585
     17 C           8.9282   -0.5000    0.0000 C.ar    1  UNL1       -0.0585
     18 C           3.7320    2.5000    0.0000 C.ar    1  UNL1       -0.0585
     19 C           2.0000    2.5000    0.0000 C.ar    1  UNL1       -0.0585
     20 C           2.8660   -1.0000    0.0000 C.2     1  UNL1        0.2447
     21 C           8.9282    2.5000    0.0000 C.ar    1  UNL1        0.0367
     22 C           8.9282   -2.5000    0.0000 C.ar    1  UNL1       -0.0615
     23 C           9.7942   -1.0000    0.0000 C.ar    1  UNL1       -0.0615
     24 C           9.7942   -2.0000    0.0000 C.ar    1  UNL1       -0.0617
     25 C           2.8660   -2.0000    0.0000 C.ar    1  UNL1        0.0367
     26 C           3.7320    3.5000    0.0000 C.ar    1  UNL1       -0.0615
     27 C           2.0000    3.5000    0.0000 C.ar    1  UNL1       -0.0615
     28 C           2.8660    4.0000    0.0000 C.ar    1  UNL1       -0.0617
     29 C           9.7942    2.0000    0.0000 C.ar    1  UNL1       -0.0496
     30 C           8.9282    3.5000    0.0000 C.ar    1  UNL1       -0.0496
     31 C           2.0000   -2.5000    0.0000 C.ar    1  UNL1       -0.0496
     32 C           3.7320   -2.5000    0.0000 C.ar    1  UNL1       -0.0496
     33 C          10.6603    2.5000    0.0000 C.ar    1  UNL1       -0.0610
     34 C           9.7942    4.0000    0.0000 C.ar    1  UNL1       -0.0610
     35 C          10.6603    3.5000    0.0000 C.ar    1  UNL1       -0.0617
     36 C           2.0000   -3.5000    0.0000 C.ar    1  UNL1       -0.0610
     37 C           3.7320   -3.5000    0.0000 C.ar    1  UNL1       -0.0610
     38 C           2.8660   -4.0000    0.0000 C.ar    1  UNL1       -0.0617
     39 H           7.7331    0.1900    0.0000 H       1  UNL1        0.0535
     40 H           6.5856   -0.3923    0.0000 H       1  UNL1        0.0332
     41 H           6.9841   -1.0826    0.0000 H       1  UNL1        0.0332
     42 H           6.7287    1.4750    0.0000 H       1  UNL1        0.0716
     43 H           5.9316    1.4750    0.0000 H       1  UNL1        0.0716
     44 H           4.2690    0.1900    0.0000 H       1  UNL1        0.0618
     45 H           2.2554    1.1077    0.0000 H       1  UNL1        0.0337
     46 H           2.6540    0.4174    0.0000 H       1  UNL1        0.0337
     47 H           8.5991    0.6900    0.0000 H       1  UNL1        0.1494
     48 H           4.2690   -0.8100    0.0000 H       1  UNL1        0.1498
     49 H           7.5252   -2.3100    0.0000 H       1  UNL1        0.0620
     50 H           8.9282    0.1200    0.0000 H       1  UNL1        0.0620
     51 H           4.2690    2.1900    0.0000 H       1  UNL1        0.0620
     52 H           1.4631    2.1900    0.0000 H       1  UNL1        0.0620
     53 H           8.9282   -3.1200    0.0000 H       1  UNL1        0.0618
     54 H          10.3312   -0.6900    0.0000 H       1  UNL1        0.0618
     55 H          10.3312   -2.3100    0.0000 H       1  UNL1        0.0618
     56 H           4.2690    3.8100    0.0000 H       1  UNL1        0.0618
     57 H           1.4631    3.8100    0.0000 H       1  UNL1        0.0618
     58 H           2.8660    4.6200    0.0000 H       1  UNL1        0.0618
     59 H           9.7942    1.3800    0.0000 H       1  UNL1        0.0625
     60 H           8.3913    3.8100    0.0000 H       1  UNL1        0.0625
     61 H           1.4631   -2.1900    0.0000 H       1  UNL1        0.0625
     62 H           4.2690   -2.1900    0.0000 H       1  UNL1        0.0625
     63 H          11.1972    2.1900    0.0000 H       1  UNL1        0.0618
     64 H           9.7942    4.6200    0.0000 H       1  UNL1        0.0618
     65 H          11.1972    3.8100    0.0000 H       1  UNL1        0.0618
     66 H           1.4631   -3.8100    0.0000 H       1  UNL1        0.0618
     67 H           4.2690   -3.8100    0.0000 H       1  UNL1        0.0618
     68 H           2.8660   -4.6200    0.0000 H       1  UNL1        0.0618
@<TRIPOS>BOND
     1     1     9    1
     2     1    13    1
     3     2    13    2
     4     3    15    2
     5     4    20    2
     6     7     5    1
     7     5    15   am
     8     5    47    1
     9    10     6    1
    10     6    20   am
    11     6    48    1
    12     7     8    1
    13     7     9    1
    14     7    39    1
    15     8    12    1
    16     8    40    1
    17     8    41    1
    18     9    42    1
    19     9    43    1
    20    10    11    1
    21    10    13    1
    22    10    44    1
    23    11    14    1
    24    11    45    1
    25    11    46    1
    26    12    16   ar
    27    12    17   ar
    28    14    18   ar
    29    14    19   ar
    30    15    21    1
    31    16    22   ar
    32    16    49    1
    33    17    23   ar
    34    17    50    1
    35    18    26   ar
    36    18    51    1
    37    19    27   ar
    38    19    52    1
    39    20    25    1
    40    21    29   ar
    41    21    30   ar
    42    22    24   ar
    43    22    53    1
    44    23    24   ar
    45    23    54    1
    46    24    55    1
    47    25    31   ar
    48    25    32   ar
    49    26    28   ar
    50    26    56    1
    51    27    28   ar
    52    27    57    1
    53    28    58    1
    54    29    33   ar
    55    29    59    1
    56    30    34   ar
    57    30    60    1
    58    31    36   ar
    59    31    61    1
    60    32    37   ar
    61    32    62    1
    62    33    35   ar
    63    33    63    1
    64    34    35   ar
    65    34    64    1
    66    35    65    1
    67    36    38   ar
    68    36    66    1
    69    37    38   ar
    70    37    67    1
    71    38    68    1
