@<TRIPOS>MOLECULE
IMPHY001098
 81 85 0 0 0
SMALL
GASTEIGER

@<TRIPOS>ATOM
      1 O          13.8755   -3.7347    0.0000 O.3     1  UNL1       -0.4792
      2 O          12.0632   -4.9299    0.0000 O.3     1  UNL1       -0.4914
      3 O          15.1646   -0.9685    0.0000 O.2     1  UNL1       -0.2750
      4 O          17.4591   -4.6620    0.0000 O.3     1  UNL1       -0.4914
      5 O          18.4591   -2.9299    0.0000 O.3     1  UNL1       -0.5033
      6 O          12.1826    1.0582    0.0000 O.2     1  UNL1       -0.2904
      7 O           8.5991   -0.9299    0.0000 O.2     1  UNL1       -0.2708
      8 O          14.4037    5.0665    0.0000 O.3     1  UNL1       -0.5068
      9 O           2.5369   -0.4299    0.0000 O.3     1  UNL1       -0.5068
     10 N          13.5183   -0.4304    0.0000 N.am    1  UNL1       -0.3074
     11 N           7.7331   -2.4299    0.0000 N.am    1  UNL1       -0.3115
     12 C          13.8755   -2.1252    0.0000 C.3     1  UNL1        0.1050
     13 C          14.4591   -2.9299    0.0000 C.3     1  UNL1        0.1406
     14 C          12.9292   -2.4299    0.0000 C.ar    1  UNL1        0.0143
     15 C          12.9292   -3.4299    0.0000 C.ar    1  UNL1        0.1669
     16 C          15.4591   -2.9299    0.0000 C.ar    1  UNL1       -0.0026
     17 C          14.1861   -1.1747    0.0000 C.2     1  UNL1        0.2248
     18 C          12.0632   -1.9299    0.0000 C.ar    1  UNL1       -0.0468
     19 C          12.0632   -3.9299    0.0000 C.ar    1  UNL1        0.1624
     20 C          11.1972   -2.4299    0.0000 C.ar    1  UNL1       -0.0209
     21 C          11.1972   -3.4299    0.0000 C.ar    1  UNL1       -0.0091
     22 C          15.9591   -3.7960    0.0000 C.ar    1  UNL1       -0.0096
     23 C          15.9591   -2.0639    0.0000 C.ar    1  UNL1       -0.0514
     24 C          16.9591   -3.7960    0.0000 C.ar    1  UNL1        0.1616
     25 C          16.9591   -2.0639    0.0000 C.ar    1  UNL1       -0.0161
     26 C          13.8289    0.5202    0.0000 C.3     1  UNL1        0.0747
     27 C          10.3312   -1.9299    0.0000 C.2     1  UNL1       -0.0496
     28 C          17.4591   -2.9299    0.0000 C.ar    1  UNL1        0.1585
     29 C          13.1611    1.2644    0.0000 C.2     1  UNL1        0.1801
     30 C          11.1972   -5.4299    0.0000 C.3     1  UNL1        0.0790
     31 C           9.4651   -2.4299    0.0000 C.2     1  UNL1        0.0007
     32 C          13.4718    2.2150    0.0000 C.ar    1  UNL1        0.0192
     33 C           8.5991   -1.9299    0.0000 C.2     1  UNL1        0.2369
     34 C          16.9591   -5.5280    0.0000 C.3     1  UNL1        0.0790
     35 C           6.8671   -1.9299    0.0000 C.3     1  UNL1        0.0159
     36 C          12.8039    2.9593    0.0000 C.ar    1  UNL1       -0.0478
     37 C          14.4503    2.4212    0.0000 C.ar    1  UNL1       -0.0478
     38 C           6.0010   -2.4299    0.0000 C.3     1  UNL1       -0.0120
     39 C           5.1350   -1.9299    0.0000 C.ar    1  UNL1       -0.0457
     40 C          13.1146    3.9098    0.0000 C.ar    1  UNL1       -0.0195
     41 C          14.7609    3.3717    0.0000 C.ar    1  UNL1       -0.0195
     42 C          14.0931    4.1160    0.0000 C.ar    1  UNL1        0.1169
     43 C           4.2690   -2.4299    0.0000 C.ar    1  UNL1       -0.0551
     44 C           5.1350   -0.9299    0.0000 C.ar    1  UNL1       -0.0551
     45 C           3.4030   -1.9299    0.0000 C.ar    1  UNL1       -0.0199
     46 C           4.2690   -0.4299    0.0000 C.ar    1  UNL1       -0.0199
     47 C           3.4030   -0.9299    0.0000 C.ar    1  UNL1        0.1169
     48 H          14.4880   -2.0290    0.0000 H       1  UNL1        0.0484
     49 H          14.7408   -3.4822    0.0000 H       1  UNL1        0.0795
     50 H          12.0632   -1.3099    0.0000 H       1  UNL1        0.0628
     51 H          10.6603   -3.7399    0.0000 H       1  UNL1        0.0661
     52 H          15.6491   -4.3329    0.0000 H       1  UNL1        0.0659
     53 H          15.6491   -1.5270    0.0000 H       1  UNL1        0.0623
     54 H          12.9116   -0.5582    0.0000 H       1  UNL1        0.1492
     55 H          17.2691   -1.5270    0.0000 H       1  UNL1        0.0655
     56 H          14.3759    0.2281    0.0000 H       1  UNL1        0.0544
     57 H          14.2115    1.0081    0.0000 H       1  UNL1        0.0544
     58 H          10.3312   -1.3099    0.0000 H       1  UNL1        0.0625
     59 H          10.8872   -4.8930    0.0000 H       1  UNL1        0.0660
     60 H          10.6603   -5.7399    0.0000 H       1  UNL1        0.0660
     61 H          11.5072   -5.9669    0.0000 H       1  UNL1        0.0660
     62 H           9.4651   -3.0499    0.0000 H       1  UNL1        0.0669
     63 H          18.7691   -2.3930    0.0000 H       1  UNL1        0.2923
     64 H          16.4221   -5.2180    0.0000 H       1  UNL1        0.0660
     65 H          16.6491   -6.0649    0.0000 H       1  UNL1        0.0660
     66 H          17.4960   -5.8380    0.0000 H       1  UNL1        0.0660
     67 H           7.7331   -3.0499    0.0000 H       1  UNL1        0.1490
     68 H           7.2656   -1.4550    0.0000 H       1  UNL1        0.0465
     69 H           6.4685   -1.4550    0.0000 H       1  UNL1        0.0465
     70 H          12.1972    2.8314    0.0000 H       1  UNL1        0.0626
     71 H          14.8643    1.9597    0.0000 H       1  UNL1        0.0626
     72 H           5.6025   -2.9049    0.0000 H       1  UNL1        0.0328
     73 H           6.3996   -2.9049    0.0000 H       1  UNL1        0.0328
     74 H          12.7005    4.3713    0.0000 H       1  UNL1        0.0654
     75 H          15.3676    3.4996    0.0000 H       1  UNL1        0.0654
     76 H           4.2690   -3.0499    0.0000 H       1  UNL1        0.0621
     77 H           5.6720   -0.6199    0.0000 H       1  UNL1        0.0621
     78 H           2.8660   -2.2399    0.0000 H       1  UNL1        0.0654
     79 H           4.2690    0.1901    0.0000 H       1  UNL1        0.0654
     80 H          13.9897    5.5280    0.0000 H       1  UNL1        0.2921
     81 H           2.0000   -0.7399    0.0000 H       1  UNL1        0.2921
@<TRIPOS>BOND
     1     1    13    1
     2     1    15    1
     3     2    19    1
     4     2    30    1
     5     3    17    2
     6     4    24    1
     7     4    34    1
     8     5    28    1
     9     5    63    1
    10     6    29    2
    11     7    33    2
    12     8    42    1
    13     8    80    1
    14     9    47    1
    15     9    81    1
    16    10    17   am
    17    10    26    1
    18    10    54    1
    19    11    33   am
    20    11    35    1
    21    11    67    1
    22    12    13    1
    23    12    14    1
    24    12    17    1
    25    12    48    1
    26    13    16    1
    27    13    49    1
    28    14    15   ar
    29    14    18   ar
    30    15    19   ar
    31    16    22   ar
    32    16    23   ar
    33    18    20   ar
    34    18    50    1
    35    19    21   ar
    36    20    21   ar
    37    20    27    1
    38    21    51    1
    39    22    24   ar
    40    22    52    1
    41    23    25   ar
    42    23    53    1
    43    24    28   ar
    44    25    28   ar
    45    25    55    1
    46    26    29    1
    47    26    56    1
    48    26    57    1
    49    27    31    2
    50    27    58    1
    51    29    32    1
    52    30    59    1
    53    30    60    1
    54    30    61    1
    55    31    33    1
    56    31    62    1
    57    32    36   ar
    58    32    37   ar
    59    34    64    1
    60    34    65    1
    61    34    66    1
    62    35    38    1
    63    35    68    1
    64    35    69    1
    65    36    40   ar
    66    36    70    1
    67    37    41   ar
    68    37    71    1
    69    38    39    1
    70    38    72    1
    71    38    73    1
    72    39    43   ar
    73    39    44   ar
    74    40    42   ar
    75    40    74    1
    76    41    42   ar
    77    41    75    1
    78    43    45   ar
    79    43    76    1
    80    44    46   ar
    81    44    77    1
    82    45    47   ar
    83    45    78    1
    84    46    47   ar
    85    46    79    1
