@<TRIPOS>MOLECULE
IMPHY015518
 44 45 0 0 0
SMALL
GASTEIGER

@<TRIPOS>ATOM
      1 O           2.5839   -3.1250    0.0000 O.3     1  UNL1       -0.3918
      2 O           2.4919    0.6986    0.0000 O.3     1  UNL1       -0.3875
      3 O           5.5371    2.4372    0.0000 O.3     1  UNL1       -0.4586
      4 O           4.3123    3.6620    0.0000 O.2     1  UNL1       -0.2456
      5 C           3.4158   -0.6841    0.0000 C.3     1  UNL1       -0.0027
      6 C           4.2818   -1.1841    0.0000 C.3     1  UNL1       -0.0150
      7 C           2.6787   -1.3512    0.0000 C.3     1  UNL1       -0.0208
      8 C           4.0726   -2.1559    0.0000 C.3     1  UNL1       -0.0202
      9 C           3.0839   -2.2590    0.0000 C.3     1  UNL1        0.0562
     10 C           3.4158    0.3159    0.0000 C.3     1  UNL1        0.0773
     11 C           5.1478   -0.6841    0.0000 C.2     1  UNL1       -0.0844
     12 C           4.1229    1.0230    0.0000 C.2     1  UNL1       -0.0489
     13 C           6.0138   -1.1841    0.0000 C.2     1  UNL1       -0.0877
     14 C           6.8799   -0.6841    0.0000 C.3     1  UNL1       -0.0346
     15 C           7.2618    0.3464    0.0000 C.3     1  UNL1       -0.0463
     16 C           7.0030    1.3124    0.0000 C.3     1  UNL1       -0.0156
     17 C           3.8640    1.9889    0.0000 C.2     1  UNL1        0.0210
     18 C           6.0371    1.5712    0.0000 C.3     1  UNL1        0.1006
     19 C           4.5712    2.6960    0.0000 C.2     1  UNL1        0.3320
     20 C           5.4283    0.7778    0.0000 C.3     1  UNL1       -0.0277
     21 H           2.6388   -0.3394    0.0000 H       1  UNL1        0.0335
     22 H           4.9688   -1.6846    0.0000 H       1  UNL1        0.0347
     23 H           2.3133   -0.8503    0.0000 H       1  UNL1        0.0294
     24 H           2.1423   -1.6620    0.0000 H       1  UNL1        0.0294
     25 H           4.0717   -2.7759    0.0000 H       1  UNL1        0.0296
     26 H           4.6890   -2.2220    0.0000 H       1  UNL1        0.0296
     27 H           2.4647   -2.2268    0.0000 H       1  UNL1        0.0593
     28 H           3.2948    0.9240    0.0000 H       1  UNL1        0.0641
     29 H           5.1478   -0.0641    0.0000 H       1  UNL1        0.0572
     30 H           4.7217    0.8625    0.0000 H       1  UNL1        0.0600
     31 H           2.8939   -3.6620    0.0000 H       1  UNL1        0.2098
     32 H           6.0138   -1.8041    0.0000 H       1  UNL1        0.0569
     33 H           2.0000    0.3211    0.0000 H       1  UNL1        0.2102
     34 H           7.0217   -1.2877    0.0000 H       1  UNL1        0.0307
     35 H           7.4987   -0.7226    0.0000 H       1  UNL1        0.0307
     36 H           7.7466   -0.0400    0.0000 H       1  UNL1        0.0269
     37 H           6.6425    0.3753    0.0000 H       1  UNL1        0.0269
     38 H           7.6206    1.3664    0.0000 H       1  UNL1        0.0301
     39 H           7.0570    1.9300    0.0000 H       1  UNL1        0.0301
     40 H           3.2652    2.1494    0.0000 H       1  UNL1        0.0686
     41 H           5.4184    1.6117    0.0000 H       1  UNL1        0.0731
     42 H           4.9364    1.1553    0.0000 H       1  UNL1        0.0265
     43 H           5.0509    0.2859    0.0000 H       1  UNL1        0.0265
     44 H           5.9202    0.4004    0.0000 H       1  UNL1        0.0265
@<TRIPOS>BOND
     1     9     1    1
     2     1    31    1
     3    10     2    1
     4     2    33    1
     5     3    18    1
     6     3    19    1
     7     4    19    2
     8     5     6    1
     9     5     7    1
    10     5    10    1
    11     5    21    1
    12     6     8    1
    13     6    11    1
    14     6    22    1
    15     7     9    1
    16     7    23    1
    17     7    24    1
    18     8     9    1
    19     8    25    1
    20     8    26    1
    21     9    27    1
    22    10    12    1
    23    10    28    1
    24    11    13    2
    25    11    29    1
    26    12    17    2
    27    12    30    1
    28    13    14    1
    29    13    32    1
    30    14    15    1
    31    14    34    1
    32    14    35    1
    33    15    16    1
    34    15    36    1
    35    15    37    1
    36    16    18    1
    37    16    38    1
    38    16    39    1
    39    17    19    1
    40    17    40    1
    41    18    20    1
    42    18    41    1
    43    20    42    1
    44    20    43    1
    45    20    44    1
