@<TRIPOS>MOLECULE
IMPHY003441
 25 24 0 0 0
SMALL
GASTEIGER

@<TRIPOS>ATOM
      1 O           5.1350    1.3450    0.0000 O.3     1  UNL1       -0.3856
      2 O           4.7690   -1.0210    0.0000 O.3     1  UNL1       -0.3737
      3 O           6.0010   -1.1550    0.0000 O.3     1  UNL1       -0.3868
      4 O           2.7690    0.7110    0.0000 O.3     1  UNL1       -0.3915
      5 O           7.7331   -0.1550    0.0000 O.3     1  UNL1       -0.3924
      6 O           2.5369   -0.1550    0.0000 O.3     1  UNL1       -0.4785
      7 O           3.4030   -1.6550    0.0000 O.2     1  UNL1       -0.2476
      8 C           5.1350    0.3450    0.0000 C.3     1  UNL1        0.1244
      9 C           4.2690   -0.1550    0.0000 C.3     1  UNL1        0.2136
     10 C           6.0010   -0.1550    0.0000 C.3     1  UNL1        0.1073
     11 C           3.7690    0.7110    0.0000 C.3     1  UNL1        0.0861
     12 C           6.8671    0.3450    0.0000 C.3     1  UNL1        0.0727
     13 C           3.4030   -0.6550    0.0000 C.2     1  UNL1        0.3418
     14 H           5.6720    0.6550    0.0000 H       1  UNL1        0.0655
     15 H           6.5380   -0.4650    0.0000 H       1  UNL1        0.0643
     16 H           4.3516    0.9231    0.0000 H       1  UNL1        0.0592
     17 H           3.6613    1.3216    0.0000 H       1  UNL1        0.0592
     18 H           7.2656    0.8199    0.0000 H       1  UNL1        0.0584
     19 H           6.4685    0.8199    0.0000 H       1  UNL1        0.0584
     20 H           5.6720    1.6550    0.0000 H       1  UNL1        0.2100
     21 H           4.4590   -1.5580    0.0000 H       1  UNL1        0.2111
     22 H           6.5380   -1.4650    0.0000 H       1  UNL1        0.2100
     23 H           2.4590    1.2480    0.0000 H       1  UNL1        0.2095
     24 H           8.2700    0.1550    0.0000 H       1  UNL1        0.2095
     25 H           2.0000   -0.4650    0.0000 H       1  UNL1        0.2951
@<TRIPOS>BOND
     1     8     1    1
     2     1    20    1
     3     9     2    1
     4     2    21    1
     5    10     3    1
     6     3    22    1
     7     4    11    1
     8     4    23    1
     9     5    12    1
    10     5    24    1
    11     6    13    1
    12     6    25    1
    13     7    13    2
    14     8     9    1
    15     8    10    1
    16     8    14    1
    17     9    11    1
    18     9    13    1
    19    10    12    1
    20    10    15    1
    21    11    16    1
    22    11    17    1
    23    12    18    1
    24    12    19    1
