@<TRIPOS>MOLECULE
IMPHY009619
 58 63 0 0 0
SMALL
GASTEIGER

@<TRIPOS>ATOM
      1 O           7.0973    0.8121    0.0000 O.3     1  UNL1       -0.3911
      2 O           4.0650    2.2724    0.0000 O.3     1  UNL1       -0.3873
      3 O           3.9991   -2.2800    0.0000 O.3     1  UNL1       -0.3912
      4 O           2.1158    0.2094    0.0000 O.3     1  UNL1       -0.4611
      5 O           2.2132    1.6528    0.0000 O.2     1  UNL1       -0.2504
      6 N           5.5798    1.1790    0.0000 N.3     1  UNL1       -0.2981
      7 C           4.9988   -0.8192    0.0000 C.3     1  UNL1        0.0221
      8 C           5.8998   -0.3853    0.0000 C.3     1  UNL1        0.0017
      9 C           5.0416    2.2778    0.0000 C.3     1  UNL1        0.0268
     10 C           5.4988    1.3714    0.0000 C.3     1  UNL1        0.0311
     11 C           4.0979   -0.3853    0.0000 C.3     1  UNL1       -0.0123
     12 C           6.7694   -0.9588    0.0000 C.3     1  UNL1       -0.0134
     13 C           6.1223    0.5896    0.0000 C.3     1  UNL1        0.0661
     14 C           4.4988    1.3714    0.0000 C.3     1  UNL1        0.0859
     15 C           3.8754    0.5896    0.0000 C.3     1  UNL1        0.0890
     16 C           4.9050   -1.8566    0.0000 C.3     1  UNL1        0.0629
     17 C           6.1559    0.0998    0.0000 C.3     1  UNL1        0.0049
     18 C           6.6996   -1.9980    0.0000 C.3     1  UNL1       -0.0438
     19 C           3.3453   -1.1055    0.0000 C.3     1  UNL1       -0.0113
     20 C           5.7611   -2.4500    0.0000 C.3     1  UNL1       -0.0257
     21 C           3.0466    1.7014    0.0000 C.3     1  UNL1       -0.0195
     22 C           2.3476   -0.8062    0.0000 C.3     1  UNL1        0.1035
     23 C           7.6653   -0.5145    0.0000 C.3     1  UNL1       -0.0580
     24 C           2.0000    0.6419    0.0000 C.3     1  UNL1       -0.0130
     25 C           2.8848    0.9119    0.0000 C.2     1  UNL1        0.3135
     26 C           4.6895    0.7236    0.0000 C.3     1  UNL1       -0.0036
     27 C           5.1450   -0.1666    0.0000 C.3     1  UNL1       -0.0523
     28 H           6.7474   -0.4488    0.0000 H       1  UNL1        0.0338
     29 H           5.0533    3.1277    0.0000 H       1  UNL1        0.0473
     30 H           6.2350    1.7964    0.0000 H       1  UNL1        0.0369
     31 H           4.2870   -1.2140    0.0000 H       1  UNL1        0.0317
     32 H           6.5607    0.1512    0.0000 H       1  UNL1        0.0600
     33 H           3.6862    1.4183    0.0000 H       1  UNL1        0.0445
     34 H           4.8527   -2.4744    0.0000 H       1  UNL1        0.0599
     35 H           5.5361    0.1132    0.0000 H       1  UNL1        0.0432
     36 H           6.6977    0.4012    0.0000 H       1  UNL1        0.0432
     37 H           6.8690   -2.5944    0.0000 H       1  UNL1        0.0272
     38 H           7.3162   -1.9331    0.0000 H       1  UNL1        0.0272
     39 H           3.0682   -1.6601    0.0000 H       1  UNL1        0.0304
     40 H           3.8443   -1.4735    0.0000 H       1  UNL1        0.0304
     41 H           5.3259   -2.8916    0.0000 H       1  UNL1        0.0290
     42 H           6.1217   -2.9543    0.0000 H       1  UNL1        0.0290
     43 H           3.2930    2.2703    0.0000 H       1  UNL1        0.0294
     44 H           2.5328    2.0484    0.0000 H       1  UNL1        0.0294
     45 H           1.7300   -1.3902    0.0000 H       1  UNL1        0.0734
     46 H           7.9407   -1.0699    0.0000 H       1  UNL1        0.0236
     47 H           8.2207   -0.2390    0.0000 H       1  UNL1        0.0236
     48 H           7.3898    0.0410    0.0000 H       1  UNL1        0.0236
     49 H           1.6468    1.1515    0.0000 H       1  UNL1        0.0302
     50 H           1.4341    0.3886    0.0000 H       1  UNL1        0.0302
     51 H           4.4071    1.2755    0.0000 H       1  UNL1        0.0424
     52 H           4.1376    0.4412    0.0000 H       1  UNL1        0.0424
     53 H           7.2800    1.4046    0.0000 H       1  UNL1        0.2098
     54 H           4.4142    2.7847    0.0000 H       1  UNL1        0.2102
     55 H           3.9456   -2.8977    0.0000 H       1  UNL1        0.2098
     56 H           4.5931   -0.4491    0.0000 H       1  UNL1        0.0242
     57 H           5.4275   -0.7186    0.0000 H       1  UNL1        0.0242
     58 H           5.6970    0.1158    0.0000 H       1  UNL1        0.0242
@<TRIPOS>BOND
     1    13     1    1
     2     1    53    1
     3    14     2    1
     4     2    54    1
     5    16     3    1
     6     3    55    1
     7     4    22    1
     8     4    25    1
     9     5    25    2
    10     6     9    1
    11     6    17    1
    12     6    26    1
    13     7     8    1
    14     7     9    1
    15     7    11    1
    16     7    16    1
    17     8    12    1
    18     8    13    1
    19     8    28    1
    20     9    10    1
    21     9    29    1
    22    10    13    1
    23    10    14    1
    24    10    30    1
    25    11    15    1
    26    11    19    1
    27    11    31    1
    28    12    17    1
    29    12    18    1
    30    12    23    1
    31    13    32    1
    32    14    15    1
    33    14    21    1
    34    15    25    1
    35    15    33    1
    36    16    20    1
    37    16    34    1
    38    17    35    1
    39    17    36    1
    40    18    20    1
    41    18    37    1
    42    18    38    1
    43    19    22    1
    44    19    39    1
    45    19    40    1
    46    20    41    1
    47    20    42    1
    48    21    24    1
    49    21    43    1
    50    21    44    1
    51    22    24    1
    52    22    45    1
    53    23    46    1
    54    23    47    1
    55    23    48    1
    56    24    49    1
    57    24    50    1
    58    26    27    1
    59    26    51    1
    60    26    52    1
    61    27    56    1
    62    27    57    1
    63    27    58    1
