@<TRIPOS>MOLECULE
IMPHY002359
 36 40 0 0 0
SMALL
GASTEIGER
****
Created with ChemWriter - http://chemwriter.com
@<TRIPOS>ATOM
      1 C           4.3572    2.2217    0.0000 C.3     1  UNL1       -0.0037
      2 C           5.2559    2.7369    0.0000 C.3     1  UNL1       -0.0038
      3 C           3.4608    2.7369    0.0000 C.3     1  UNL1       -0.0193
      4 C           4.3572    1.1892    0.0000 C.3     1  UNL1       -0.0006
      5 C           4.3459    3.1908    0.0000 C.3     1  UNL1       -0.0003
      6 C           5.2491    3.7763    0.0000 C.3     1  UNL1       -0.0202
      7 C           6.1569    2.2217    0.0000 C.3     1  UNL1       -0.0003
      8 C           5.2559    1.7679    0.0000 C.3     1  UNL1       -0.0003
      9 C           2.5712    2.2217    0.0000 C.3     1  UNL1       -0.0060
     10 C           3.4608    3.7717    0.0000 C.3     1  UNL1       -0.0043
     11 C           3.4608    0.6740    0.0000 C.3     1  UNL1       -0.0036
     12 C           6.1478    4.2982    0.0000 C.3     1  UNL1        0.0059
     13 C           4.3527    4.2937    0.0000 C.3     1  UNL1       -0.0045
     14 C           7.0556    2.7482    0.0000 C.3     1  UNL1       -0.0002
     15 C           2.5712    1.1892    0.0000 C.3     1  UNL1       -0.0131
     16 C           1.6725    2.7369    0.0000 C.3     1  UNL1        0.0072
     17 C           2.5758    3.1363    0.0000 C.3     1  UNL1       -0.0006
     18 C           7.0487    3.7899    0.0000 C.3     1  UNL1       -0.0014
     19 C           6.1342    5.3376    0.0000 C.3     1  UNL1        0.1478
     20 C           1.6725    0.6740    0.0000 C.3     1  UNL1        0.0482
     21 C           0.7829    2.2217    0.0000 C.3     1  UNL1        0.0644
     22 C           7.9429    4.3164    0.0000 C.3     1  UNL1       -0.0001
     23 C           7.9088    3.2543    0.0000 C.3     1  UNL1       -0.0002
     24 C           7.0329    5.8641    0.0000 C.3     1  UNL1        0.0279
     25 O           5.3558    5.7643    0.0000 O.3     1  UNL1       -0.2235
     26 C           0.7829    1.1892    0.0000 C.2     1  UNL1        0.1496
     27 C           1.1755    0.0000    0.0000 C.3     1  UNL1        0.0070
     28 C           2.1105    0.0000    0.0000 C.3     1  UNL1        0.0070
     29 C           7.9338    5.3558    0.0000 C.3     1  UNL1        0.0024
     30 C           6.3611    6.5109    0.0000 C.3     1  UNL1        0.0025
     31 C           7.4935    6.5109    0.0000 C.3     1  UNL1        0.0025
     32 O           0.0000    0.7353    0.0000 O.2     1  UNL1       -0.2961
     33 H           3.4359    1.6499    0.0000 H       1  UNL1        0.0318
     34 H           5.2559    4.6772    0.0000 H       1  UNL1        0.0316
     35 H           6.1387    3.1908    0.0000 H       1  UNL1        0.0340
     36 H           2.6007    0.2269    0.0000 H       1  UNL1        0.0322
@<TRIPOS>BOND
     1     1     2    1
     2     1     3    1
     3     1     4    1
     4     1     5    1
     5     2     6    1
     6     2     7    1
     7     2     8    1
     8     3     9    1
     9     3    10    1
    10     3    33    1
    11     4    11    1
    12     6    12    1
    13     6    13    1
    14     6    34    1
    15     7    14    1
    16     9    15    1
    17     9    16    1
    18     9    17    1
    19    10    13    1
    20    11    15    1
    21    12    18    1
    22    12    19    1
    23    12    35    1
    24    14    18    1
    25    15    20    1
    26    15    36    1
    27    16    21    1
    28    18    22    1
    29    18    23    1
    30    19    24    1
    31    19    25    1
    32    20    26    1
    33    20    27    1
    34    20    28    1
    35    21    26    1
    36    22    29    1
    37    24    29    1
    38    24    30    1
    39    24    31    1
    40    26    32    2
