@<TRIPOS>MOLECULE
IMPHY000604
 20 22 0 0 0
SMALL
GASTEIGER

@<TRIPOS>ATOM
      1 C          10.1796  -11.2118    0.0000 C.ar    1  UNL1        0.0097
      2 C          10.8896  -11.6250    0.0000 C.ar    1  UNL1        0.0758
      3 C          10.8862  -12.4500    0.0000 C.ar    1  UNL1        0.0065
      4 C          10.1706  -12.8584    0.0000 C.ar    1  UNL1        0.0035
      5 C           9.4585  -12.4416    0.0000 C.ar    1  UNL1        0.0420
      6 C           8.7394  -12.8521    0.0000 C.2     1  UNL1        0.1957
      7 C           8.0294  -12.4390    0.0000 C.ar    1  UNL1        0.0420
      8 C           7.3139  -12.8474    0.0000 C.ar    1  UNL1        0.0033
      9 C           6.6018  -12.4306    0.0000 C.ar    1  UNL1        0.0001
     10 C           6.6052  -11.6056    0.0000 C.ar    1  UNL1        0.0001
     11 C           7.3207  -11.1972    0.0000 C.ar    1  UNL1        0.0033
     12 C           8.0328  -11.6140    0.0000 C.ar    1  UNL1        0.0420
     13 C           8.7520  -11.2035    0.0000 C.2     1  UNL1        0.1957
     14 C           9.4640  -11.6203    0.0000 C.ar    1  UNL1        0.0422
     15 O           8.7360  -13.6771    0.0000 O.2     1  UNL1       -0.2866
     16 O           8.7554  -10.3786    0.0000 O.2     1  UNL1       -0.2866
     17 C          11.6051  -11.2166    0.0000 C.2     1  UNL1        0.3413
     18 O          11.6085  -10.3916    0.0000 O.2     1  UNL1       -0.2449
     19 O          12.3151  -11.6296    0.0000 O.3     1  UNL1       -0.4413
     20 C          12.3119  -12.4547    0.0000 C.3     1  UNL1        0.2560
@<TRIPOS>BOND
     1     1     2   ar
     2     1    14   ar
     3     2     3   ar
     4     2    17    1
     5     3     4   ar
     6     4     5   ar
     7     5     6    1
     8     5    14   ar
     9     6     7    1
    10     6    15    2
    11     7     8   ar
    12     7    12   ar
    13     8     9   ar
    14     9    10   ar
    15    10    11   ar
    16    11    12   ar
    17    12    13    1
    18    13    14    1
    19    13    16    2
    20    17    18    2
    21    17    19    1
    22    19    20    1
