@<TRIPOS>MOLECULE
IMPHY011147
 45 49 0 0 0
SMALL
GASTEIGER

@<TRIPOS>ATOM
      1 O           5.5734   -1.3307    0.0000 O.3     1  UNL1       -0.3707
      2 O           7.8539    0.7227    0.0000 O.3     1  UNL1       -0.4559
      3 O           6.4690    1.8441    0.0000 O.2     1  UNL1       -0.2504
      4 O          11.5027   -0.4671    0.0000 O.3     1  UNL1       -0.4526
      5 O          11.5027   -2.0766    0.0000 O.3     1  UNL1       -0.4526
      6 O           2.0045   -0.3481    0.0000 O.3     1  UNL1       -0.4914
      7 O           2.0011    1.6519    0.0000 O.3     1  UNL1       -0.5033
      8 C           7.0448   -0.6786    0.0000 C.3     1  UNL1        0.0394
      9 C           6.3757    0.0645    0.0000 C.3     1  UNL1        0.0952
     10 C           7.9584   -0.2719    0.0000 C.3     1  UNL1        0.1339
     11 C           5.4686   -0.3421    0.0000 C.3     1  UNL1        0.0971
     12 C           6.5456   -1.5382    0.0000 C.3     1  UNL1        0.0558
     13 C           6.8757    0.9306    0.0000 C.2     1  UNL1        0.3141
     14 C           8.8244   -0.7719    0.0000 C.ar    1  UNL1       -0.0032
     15 C           4.6017    0.1564    0.0000 C.ar    1  UNL1       -0.0144
     16 C           9.6904   -0.2719    0.0000 C.ar    1  UNL1       -0.0095
     17 C           8.8244   -1.7719    0.0000 C.ar    1  UNL1       -0.0514
     18 C           3.7366   -0.3451    0.0000 C.ar    1  UNL1       -0.0107
     19 C           4.6000    1.1564    0.0000 C.ar    1  UNL1       -0.0524
     20 C          10.5565   -0.7719    0.0000 C.ar    1  UNL1        0.1666
     21 C           9.6904   -2.2719    0.0000 C.ar    1  UNL1       -0.0158
     22 C           2.8697    0.1534    0.0000 C.ar    1  UNL1        0.1616
     23 C          10.5565   -1.7719    0.0000 C.ar    1  UNL1        0.1662
     24 C           3.7331    1.6549    0.0000 C.ar    1  UNL1       -0.0162
     25 C           2.8680    1.1534    0.0000 C.ar    1  UNL1        0.1585
     26 C          12.0863   -1.2719    0.0000 C.3     1  UNL1        0.2332
     27 C           2.0063   -1.3481    0.0000 C.3     1  UNL1        0.0790
     28 H           7.6128   -1.3110    0.0000 H       1  UNL1        0.0371
     29 H           5.8061    0.6955    0.0000 H       1  UNL1        0.0447
     30 H           8.4784    0.0658    0.0000 H       1  UNL1        0.0789
     31 H           4.9491   -0.6805    0.0000 H       1  UNL1        0.0654
     32 H           6.3531   -2.1276    0.0000 H       1  UNL1        0.0564
     33 H           7.1115   -1.7915    0.0000 H       1  UNL1        0.0564
     34 H           9.6904    0.3481    0.0000 H       1  UNL1        0.0659
     35 H           8.2875   -2.0819    0.0000 H       1  UNL1        0.0623
     36 H           3.7376   -0.9651    0.0000 H       1  UNL1        0.0659
     37 H           5.1364    1.4673    0.0000 H       1  UNL1        0.0622
     38 H           9.6904   -2.8919    0.0000 H       1  UNL1        0.0655
     39 H           3.7320    2.2749    0.0000 H       1  UNL1        0.0655
     40 H          12.5472   -1.6866    0.0000 H       1  UNL1        0.1166
     41 H          12.5472   -0.8571    0.0000 H       1  UNL1        0.1166
     42 H           2.0000    2.2719    0.0000 H       1  UNL1        0.2923
     43 H           1.3863   -1.3492    0.0000 H       1  UNL1        0.0660
     44 H           2.0073   -1.9681    0.0000 H       1  UNL1        0.0660
     45 H           2.6263   -1.3471    0.0000 H       1  UNL1        0.0660
@<TRIPOS>BOND
     1     1    11    1
     2     1    12    1
     3     2    10    1
     4     2    13    1
     5     3    13    2
     6     4    20    1
     7     4    26    1
     8     5    23    1
     9     5    26    1
    10     6    22    1
    11     6    27    1
    12     7    25    1
    13     7    42    1
    14     8     9    1
    15     8    10    1
    16     8    12    1
    17     8    28    1
    18     9    11    1
    19     9    13    1
    20     9    29    1
    21    10    14    1
    22    10    30    1
    23    11    15    1
    24    11    31    1
    25    12    32    1
    26    12    33    1
    27    14    16   ar
    28    14    17   ar
    29    15    18   ar
    30    15    19   ar
    31    16    20   ar
    32    16    34    1
    33    17    21   ar
    34    17    35    1
    35    18    22   ar
    36    18    36    1
    37    19    24   ar
    38    19    37    1
    39    20    23   ar
    40    21    23   ar
    41    21    38    1
    42    22    25   ar
    43    24    25   ar
    44    24    39    1
    45    26    40    1
    46    26    41    1
    47    27    43    1
    48    27    44    1
    49    27    45    1
