@<TRIPOS>MOLECULE
IMPHY006617
 14 14 0 0 0
SMALL
GASTEIGER

@<TRIPOS>ATOM
      1 O           2.6723    1.4839    0.0000 O.2     1  UNL1       -0.2733
      2 O           5.5202   -0.5852    0.0000 O.2     1  UNL1       -0.2524
      3 N           3.7601   -0.8639    0.0000 N.am    1  UNL1       -0.2880
      4 N           4.2601    0.6749    0.0000 N.am    1  UNL1       -0.2387
      5 C           2.9511   -0.2761    0.0000 C.3     1  UNL1        0.0985
      6 C           3.2601    0.6749    0.0000 C.2     1  UNL1        0.2405
      7 C           2.0000   -0.5852    0.0000 C.3     1  UNL1       -0.0380
      8 C           4.5691   -0.2761    0.0000 C.2     1  UNL1        0.3065
      9 H           2.8181   -1.1157    0.0000 H       1  UNL1        0.0592
     10 H           3.7601   -1.4839    0.0000 H       1  UNL1        0.1510
     11 H           1.8084    0.0045    0.0000 H       1  UNL1        0.0252
     12 H           1.4103   -0.7768    0.0000 H       1  UNL1        0.0252
     13 H           2.1916   -1.1748    0.0000 H       1  UNL1        0.0252
     14 H           4.6245    1.1765    0.0000 H       1  UNL1        0.1591
@<TRIPOS>BOND
     1     1     6    2
     2     2     8    2
     3     3     5    1
     4     3     8   am
     5     3    10    1
     6     4     6   am
     7     4     8   am
     8     4    14    1
     9     5     6    1
    10     5     7    1
    11     5     9    1
    12     7    11    1
    13     7    12    1
    14     7    13    1
