@<TRIPOS>MOLECULE
IMPHY009798
 120 126 0 0 0
SMALL
GASTEIGER

@<TRIPOS>ATOM
      1 O           4.8406    0.4900    0.0000 O.3     1  UNL1       -0.3376
      2 O           5.9059    2.7190    0.0000 O.3     1  UNL1       -0.3840
      3 O           4.2041    2.2715    0.0000 O.3     1  UNL1       -0.4573
      4 O           3.1745   -0.9683    0.0000 O.3     1  UNL1       -0.3615
      5 O           3.3982    0.9491    0.0000 O.3     1  UNL1       -0.4573
      6 O           5.9059    3.7190    0.0000 O.3     1  UNL1       -0.4556
      7 O           4.0300   -2.7689    0.0000 O.3     1  UNL1       -0.4539
      8 O           7.6379    4.7190    0.0000 O.3     1  UNL1       -0.3876
      9 O           9.8878    4.6254    0.0000 O.3     1  UNL1       -0.3869
     10 O           5.2371    3.6618    0.0000 O.2     1  UNL1       -0.2512
     11 O           3.5844    2.6711    0.0000 O.2     1  UNL1       -0.2512
     12 O           6.7719    5.2190    0.0000 O.2     1  UNL1       -0.2505
     13 O           5.4361   -3.7804    0.0000 O.2     1  UNL1       -0.2475
     14 O           4.6689   -5.0763    0.0000 O.3     1  UNL1       -0.3756
     15 O           3.6842   -6.2157    0.0000 O.3     1  UNL1       -0.3887
     16 N          10.3039    2.1982    0.0000 N.3     1  UNL1       -0.2961
     17 C           6.4400    0.6441    0.0000 C.3     1  UNL1        0.0882
     18 C           5.8451   -0.2034    0.0000 C.3     1  UNL1        0.0091
     19 C           6.0349    1.5519    0.0000 C.3     1  UNL1        0.0619
     20 C           6.7719    2.2190    0.0000 C.3     1  UNL1        0.1173
     21 C           7.6379    1.7190    0.0000 C.3     1  UNL1       -0.0010
     22 C           4.8144   -0.1040    0.0000 C.3     1  UNL1        0.0652
     23 C           7.4287    0.7472    0.0000 C.3     1  UNL1       -0.0167
     24 C           4.1745   -0.9722    0.0000 C.3     1  UNL1        0.2127
     25 C           5.0068    1.6751    0.0000 C.3     1  UNL1        0.1483
     26 C           8.5039    2.2190    0.0000 C.3     1  UNL1       -0.0146
     27 C           4.3924    0.8416    0.0000 C.3     1  UNL1        0.1486
     28 C           6.3073   -1.1779    0.0000 C.3     1  UNL1       -0.0409
     29 C           6.7719    3.2190    0.0000 C.3     1  UNL1        0.1583
     30 C           8.5039    3.2190    0.0000 C.3     1  UNL1        0.0230
     31 C           4.6140   -1.9571    0.0000 C.3     1  UNL1        0.1569
     32 C           7.6379    3.7190    0.0000 C.3     1  UNL1        0.1006
     33 C           6.8405   -0.2994    0.0000 C.3     1  UNL1       -0.0564
     34 C           5.6876   -2.0607    0.0000 C.3     1  UNL1       -0.0099
     35 C           9.3979    3.7537    0.0000 C.3     1  UNL1        0.0843
     36 C           9.3979    1.6844    0.0000 C.3     1  UNL1        0.0029
     37 C          10.3039    3.2398    0.0000 C.3     1  UNL1        0.0393
     38 C           8.8879    4.6139    0.0000 C.3     1  UNL1       -0.0342
     39 C          11.2351    3.7968    0.0000 C.3     1  UNL1       -0.0344
     40 C          11.2351    1.6413    0.0000 C.3     1  UNL1        0.0019
     41 C          12.1789    2.1765    0.0000 C.3     1  UNL1       -0.0310
     42 C          12.1789    3.2615    0.0000 C.3     1  UNL1       -0.0478
     43 C           4.3192    3.2649    0.0000 C.2     1  UNL1        0.3043
     44 C           2.9942    1.8639    0.0000 C.2     1  UNL1        0.3043
     45 C           5.9059    4.7190    0.0000 C.2     1  UNL1        0.3104
     46 C           4.4411   -3.6805    0.0000 C.2     1  UNL1        0.3419
     47 C          13.0430    1.6732    0.0000 C.3     1  UNL1       -0.0613
     48 C           5.0398    5.2190    0.0000 C.3     1  UNL1        0.0534
     49 C           3.5166    3.8613    0.0000 C.3     1  UNL1        0.0332
     50 C           2.0000    1.9714    0.0000 C.3     1  UNL1        0.0332
     51 C           3.8571   -4.4923    0.0000 C.3     1  UNL1        0.1849
     52 C           5.0398    6.2190    0.0000 C.3     1  UNL1       -0.0432
     53 C           4.1738    4.7190    0.0000 C.3     1  UNL1       -0.0523
     54 C           3.2732   -5.3041    0.0000 C.3     1  UNL1        0.0913
     55 C           3.0454   -3.9084    0.0000 C.3     1  UNL1       -0.0231
     56 C           4.1738    6.7190    0.0000 C.3     1  UNL1       -0.0645
     57 C           2.2782   -5.2043    0.0000 C.3     1  UNL1       -0.0357
     58 H           5.4439    2.1629    0.0000 H       1  UNL1        0.0396
     59 H           8.3249    1.2185    0.0000 H       1  UNL1        0.0334
     60 H           3.9683   -0.0224    0.0000 H       1  UNL1        0.0398
     61 H           7.4278    0.1272    0.0000 H       1  UNL1        0.0297
     62 H           8.0452    0.6811    0.0000 H       1  UNL1        0.0297
     63 H           5.2362    2.2511    0.0000 H       1  UNL1        0.0776
     64 H           8.4974    1.3690    0.0000 H       1  UNL1        0.0321
     65 H           4.0274    0.3404    0.0000 H       1  UNL1        0.0776
     66 H           6.7463   -1.6157    0.0000 H       1  UNL1        0.0273
     67 H           6.8137   -0.8202    0.0000 H       1  UNL1        0.0273
     68 H           6.7719    3.8390    0.0000 H       1  UNL1        0.0790
     69 H           8.4974    4.0690    0.0000 H       1  UNL1        0.0358
     70 H           4.8700   -2.5218    0.0000 H       1  UNL1        0.0788
     71 H           7.1010    4.0290    0.0000 H       1  UNL1        0.0635
     72 H           6.7809   -0.9165    0.0000 H       1  UNL1        0.0236
     73 H           7.4576   -0.3589    0.0000 H       1  UNL1        0.0236
     74 H           6.9000    0.3178    0.0000 H       1  UNL1        0.0236
     75 H           5.5234   -2.6585    0.0000 H       1  UNL1        0.0303
     76 H           6.2485   -2.3248    0.0000 H       1  UNL1        0.0303
     77 H           8.9933    1.2146    0.0000 H       1  UNL1        0.0430
     78 H           9.7915    1.2053    0.0000 H       1  UNL1        0.0430
     79 H           5.2859    2.7191    0.0000 H       1  UNL1        0.2103
     80 H          10.2941    4.0898    0.0000 H       1  UNL1        0.0491
     81 H           2.8624   -1.5040    0.0000 H       1  UNL1        0.2129
     82 H           9.4212    4.9300    0.0000 H       1  UNL1        0.0258
     83 H           8.5717    5.1472    0.0000 H       1  UNL1        0.0258
     84 H           8.3546    4.2977    0.0000 H       1  UNL1        0.0258
     85 H          11.6287    4.2758    0.0000 H       1  UNL1        0.0281
     86 H          10.8305    4.2665    0.0000 H       1  UNL1        0.0281
     87 H          10.8305    1.1715    0.0000 H       1  UNL1        0.0429
     88 H          11.6287    1.1623    0.0000 H       1  UNL1        0.0429
     89 H           8.1748    5.0290    0.0000 H       1  UNL1        0.2100
     90 H           9.5716    5.1587    0.0000 H       1  UNL1        0.2102
     91 H          12.1753    1.5565    0.0000 H       1  UNL1        0.0310
     92 H          12.7897    3.1554    0.0000 H       1  UNL1        0.0269
     93 H          12.3879    3.8452    0.0000 H       1  UNL1        0.0269
     94 H          12.7309    1.1374    0.0000 H       1  UNL1        0.0233
     95 H          13.5787    1.3611    0.0000 H       1  UNL1        0.0233
     96 H          13.3550    2.2089    0.0000 H       1  UNL1        0.0233
     97 H           4.5029    5.5290    0.0000 H       1  UNL1        0.0410
     98 H           3.8863    4.3590    0.0000 H       1  UNL1        0.0342
     99 H           3.0189    4.2311    0.0000 H       1  UNL1        0.0342
    100 H           3.1468    3.3636    0.0000 H       1  UNL1        0.0342
    101 H           2.0666    2.5878    0.0000 H       1  UNL1        0.0342
    102 H           1.3836    2.0380    0.0000 H       1  UNL1        0.0342
    103 H           1.9334    1.3550    0.0000 H       1  UNL1        0.0342
    104 H           5.6504    6.1114    0.0000 H       1  UNL1        0.0270
    105 H           5.2519    6.8016    0.0000 H       1  UNL1        0.0270
    106 H           3.8638    5.2560    0.0000 H       1  UNL1        0.0238
    107 H           3.6369    4.4090    0.0000 H       1  UNL1        0.0238
    108 H           4.4838    4.1821    0.0000 H       1  UNL1        0.0238
    109 H           3.8901   -5.3660    0.0000 H       1  UNL1        0.0625
    110 H           3.4074   -3.4050    0.0000 H       1  UNL1        0.0264
    111 H           2.5420   -3.5463    0.0000 H       1  UNL1        0.0264
    112 H           2.6833   -4.4116    0.0000 H       1  UNL1        0.0264
    113 H           4.6070   -5.6932    0.0000 H       1  UNL1        0.2110
    114 H           4.4838    7.2560    0.0000 H       1  UNL1        0.0230
    115 H           3.6369    7.0290    0.0000 H       1  UNL1        0.0230
    116 H           3.8638    6.1821    0.0000 H       1  UNL1        0.0230
    117 H           2.3401   -4.5874    0.0000 H       1  UNL1        0.0255
    118 H           1.6613   -5.1424    0.0000 H       1  UNL1        0.0255
    119 H           2.2163   -5.8212    0.0000 H       1  UNL1        0.0255
    120 H           3.3222   -6.7190    0.0000 H       1  UNL1        0.2099
@<TRIPOS>BOND
     1     1    17    1
     2     1    24    1
     3    20     2    1
     4     2    79    1
     5    25     3    1
     6     3    43    1
     7    24     4    1
     8     4    81    1
     9    27     5    1
    10     5    44    1
    11    29     6    1
    12     6    45    1
    13    31     7    1
    14     7    46    1
    15    32     8    1
    16     8    89    1
    17    35     9    1
    18     9    90    1
    19    10    43    2
    20    11    44    2
    21    12    45    2
    22    13    46    2
    23    51    14    1
    24    14   113    1
    25    54    15    1
    26    15   120    1
    27    16    36    1
    28    16    37    1
    29    16    40    1
    30    17    18    1
    31    17    19    1
    32    17    23    1
    33    18    22    1
    34    18    28    1
    35    18    33    1
    36    19    20    1
    37    19    25    1
    38    19    58    1
    39    20    21    1
    40    20    29    1
    41    21    23    1
    42    21    26    1
    43    21    59    1
    44    22    24    1
    45    22    27    1
    46    22    60    1
    47    23    61    1
    48    23    62    1
    49    24    31    1
    50    25    27    1
    51    25    63    1
    52    26    30    1
    53    26    36    1
    54    26    64    1
    55    27    65    1
    56    28    34    1
    57    28    66    1
    58    28    67    1
    59    29    32    1
    60    29    68    1
    61    30    32    1
    62    30    35    1
    63    30    69    1
    64    31    34    1
    65    31    70    1
    66    32    71    1
    67    33    72    1
    68    33    73    1
    69    33    74    1
    70    34    75    1
    71    34    76    1
    72    35    37    1
    73    35    38    1
    74    36    77    1
    75    36    78    1
    76    37    39    1
    77    37    80    1
    78    38    82    1
    79    38    83    1
    80    38    84    1
    81    39    42    1
    82    39    85    1
    83    39    86    1
    84    40    41    1
    85    40    87    1
    86    40    88    1
    87    41    42    1
    88    41    47    1
    89    41    91    1
    90    42    92    1
    91    42    93    1
    92    43    49    1
    93    44    50    1
    94    45    48    1
    95    46    51    1
    96    47    94    1
    97    47    95    1
    98    47    96    1
    99    48    52    1
   100    48    53    1
   101    48    97    1
   102    49    98    1
   103    49    99    1
   104    49   100    1
   105    50   101    1
   106    50   102    1
   107    50   103    1
   108    51    54    1
   109    51    55    1
   110    52    56    1
   111    52   104    1
   112    52   105    1
   113    53   106    1
   114    53   107    1
   115    53   108    1
   116    54    57    1
   117    54   109    1
   118    55   110    1
   119    55   111    1
   120    55   112    1
   121    56   114    1
   122    56   115    1
   123    56   116    1
   124    57   117    1
   125    57   118    1
   126    57   119    1
