@<TRIPOS>MOLECULE
IMPHY012414
 164 172 0 0 0
SMALL
GASTEIGER

@<TRIPOS>ATOM
      1 O          11.3261    6.1425    0.0000 O.3     1  UNL1       -0.3449
      2 O           9.4651   -3.1160    0.0000 O.3     1  UNL1       -0.4318
      3 O           8.5991   -1.6160    0.0000 O.2     1  UNL1       -0.2501
      4 O          13.0581    6.1225    0.0000 O.3     1  UNL1       -0.3405
      5 O           7.7331   -3.1160    0.0000 O.3     1  UNL1       -0.3312
      6 O          11.3493    8.1424    0.0000 O.3     1  UNL1       -0.3841
      7 O          13.0928    9.1223    0.0000 O.3     1  UNL1       -0.3864
      8 O           9.4651   -5.1160    0.0000 O.3     1  UNL1       -0.3366
      9 O          14.8131    8.1023    0.0000 O.3     1  UNL1       -0.3865
     10 O           7.7331   -6.1160    0.0000 O.3     1  UNL1       -0.3863
     11 O          15.6617    6.5924    0.0000 O.3     1  UNL1       -0.3924
     12 O           6.0010   -5.1160    0.0000 O.3     1  UNL1       -0.3865
     13 O           6.0010   -2.1160    0.0000 O.3     1  UNL1       -0.3461
     14 O           8.5991   -6.6160    0.0000 O.3     1  UNL1       -0.3405
     15 O          11.1972   -6.1160    0.0000 O.3     1  UNL1       -0.3841
     16 O          11.1972   -8.1160    0.0000 O.3     1  UNL1       -0.3864
     17 O           4.2690   -2.1160    0.0000 O.3     1  UNL1       -0.3431
     18 O           9.4651   -9.1160    0.0000 O.3     1  UNL1       -0.3865
     19 O           6.0010   -0.1160    0.0000 O.3     1  UNL1       -0.3841
     20 O           7.7331   -9.1160    0.0000 O.3     1  UNL1       -0.3924
     21 O           4.2690    0.8840    0.0000 O.3     1  UNL1       -0.3864
     22 O           2.5369   -0.1160    0.0000 O.3     1  UNL1       -0.3866
     23 C          10.3708    1.4530    0.0000 C.3     1  UNL1       -0.0194
     24 C          11.2406    1.9463    0.0000 C.3     1  UNL1       -0.0257
     25 C          11.2647    2.9877    0.0000 C.3     1  UNL1       -0.0250
     26 C          10.3631    0.4530    0.0000 C.3     1  UNL1       -0.0051
     27 C          10.3708    3.5223    0.0000 C.3     1  UNL1       -0.0278
     28 C           9.4647    1.9668    0.0000 C.3     1  UNL1       -0.0463
     29 C          10.3708    4.6073    0.0000 C.3     1  UNL1       -0.0052
     30 C           9.4647    3.0085    0.0000 C.3     1  UNL1       -0.0486
     31 C          11.2252   -0.0536    0.0000 C.2     1  UNL1       -0.0629
     32 C          11.2332   -1.0952    0.0000 C.3     1  UNL1       -0.0031
     33 C          12.1028    1.4397    0.0000 C.3     1  UNL1       -0.0306
     34 C          12.2206    3.5009    0.0000 C.3     1  UNL1       -0.0447
     35 C           9.4492   -0.0468    0.0000 C.3     1  UNL1       -0.0424
     36 C          10.3312   -1.6160    0.0000 C.3     1  UNL1        0.0744
     37 C           9.3846    1.2870    0.0000 C.3     1  UNL1       -0.0585
     38 C          11.3146    5.1426    0.0000 C.3     1  UNL1        0.0672
     39 C           9.4331   -1.0883    0.0000 C.3     1  UNL1       -0.0359
     40 C          12.1229    2.4744    0.0000 C.3     1  UNL1       -0.0590
     41 C          12.0951    0.4397    0.0000 C.2     1  UNL1       -0.0836
     42 C          12.2457    4.5856    0.0000 C.3     1  UNL1       -0.0255
     43 C           9.3796    0.6343    0.0000 C.3     1  UNL1       -0.0553
     44 C          12.1811   -1.6232    0.0000 C.3     1  UNL1       -0.0403
     45 C          10.3144   -2.7009    0.0000 C.3     1  UNL1       -0.0362
     46 C          12.1895   -2.7081    0.0000 C.3     1  UNL1       -0.0343
     47 C           9.8741    5.4753    0.0000 C.3     1  UNL1       -0.0572
     48 C           9.3708    4.6112    0.0000 C.3     1  UNL1       -0.0572
     49 C          11.2499   -3.2506    0.0000 C.3     1  UNL1       -0.0468
     50 C           9.4651   -2.1160    0.0000 C.2     1  UNL1        0.3161
     51 C          13.1895   -2.7043    0.0000 C.3     1  UNL1       -0.0598
     52 C          12.6928   -3.5722    0.0000 C.3     1  UNL1       -0.0598
     53 C          12.1979    6.6324    0.0000 C.3     1  UNL1        0.1882
     54 C          12.2094    7.6324    0.0000 C.3     1  UNL1        0.1341
     55 C           8.5991   -3.6160    0.0000 C.3     1  UNL1        0.2341
     56 C          13.0812    8.1223    0.0000 C.3     1  UNL1        0.1141
     57 C          13.9298    6.6124    0.0000 C.3     1  UNL1        0.1130
     58 C          13.9414    7.6124    0.0000 C.3     1  UNL1        0.1119
     59 C           8.5991   -4.6160    0.0000 C.3     1  UNL1        0.1520
     60 C           7.7331   -5.1160    0.0000 C.3     1  UNL1        0.1155
     61 C           6.8671   -3.6160    0.0000 C.3     1  UNL1        0.1144
     62 C          14.7900    6.1024    0.0000 C.3     1  UNL1        0.0730
     63 C           6.8671   -4.6160    0.0000 C.3     1  UNL1        0.1120
     64 C           6.0010   -3.1160    0.0000 C.3     1  UNL1        0.0796
     65 C           9.4651   -6.1160    0.0000 C.3     1  UNL1        0.1886
     66 C          10.3312   -6.6160    0.0000 C.3     1  UNL1        0.1341
     67 C          10.3312   -7.6160    0.0000 C.3     1  UNL1        0.1141
     68 C           8.5991   -7.6160    0.0000 C.3     1  UNL1        0.1130
     69 C           9.4651   -8.1160    0.0000 C.3     1  UNL1        0.1119
     70 C           5.1350   -1.6160    0.0000 C.3     1  UNL1        0.1879
     71 C           5.1350   -0.6160    0.0000 C.3     1  UNL1        0.1341
     72 C           7.7331   -8.1160    0.0000 C.3     1  UNL1        0.0730
     73 C           4.2690   -0.1160    0.0000 C.3     1  UNL1        0.1140
     74 C           3.4030   -1.6160    0.0000 C.3     1  UNL1        0.0873
     75 C           3.4030   -0.6160    0.0000 C.3     1  UNL1        0.1095
     76 C           2.5369   -2.1160    0.0000 C.3     1  UNL1       -0.0361
     77 H          11.7823    2.2480    0.0000 H       1  UNL1        0.0315
     78 H           9.8350    3.8344    0.0000 H       1  UNL1        0.0312
     79 H           8.8539    2.0730    0.0000 H       1  UNL1        0.0271
     80 H           9.2556    1.3832    0.0000 H       1  UNL1        0.0271
     81 H           9.2556    3.5922    0.0000 H       1  UNL1        0.0268
     82 H           8.8539    2.9024    0.0000 H       1  UNL1        0.0268
     83 H          11.7666   -0.7790    0.0000 H       1  UNL1        0.0357
     84 H          12.7125    1.3273    0.0000 H       1  UNL1        0.0310
     85 H          12.3193    2.0206    0.0000 H       1  UNL1        0.0310
     86 H          12.4161    2.9126    0.0000 H       1  UNL1        0.0271
     87 H          12.8338    3.5929    0.0000 H       1  UNL1        0.0271
     88 H           9.2492    0.5401    0.0000 H       1  UNL1        0.0274
     89 H           8.8368   -0.1434    0.0000 H       1  UNL1        0.0274
     90 H           9.2817    1.8984    0.0000 H       1  UNL1        0.0235
     91 H           8.7733    1.1841    0.0000 H       1  UNL1        0.0235
     92 H           9.4876    0.6756    0.0000 H       1  UNL1        0.0235
     93 H          10.7806    5.4577    0.0000 H       1  UNL1        0.0602
     94 H           8.8240   -0.9728    0.0000 H       1  UNL1        0.0276
     95 H           9.2151   -1.6687    0.0000 H       1  UNL1        0.0276
     96 H          11.8047    1.9423    0.0000 H       1  UNL1        0.0235
     97 H          12.6550    2.1561    0.0000 H       1  UNL1        0.0235
     98 H          12.4412    3.0065    0.0000 H       1  UNL1        0.0235
     99 H          12.6296    0.1256    0.0000 H       1  UNL1        0.0572
    100 H          12.8540    4.4654    0.0000 H       1  UNL1        0.0290
    101 H          12.4682    5.1643    0.0000 H       1  UNL1        0.0290
    102 H           9.4920    1.2440    0.0000 H       1  UNL1        0.0238
    103 H           8.7699    0.7466    0.0000 H       1  UNL1        0.0238
    104 H           9.2673    0.0245    0.0000 H       1  UNL1        0.0238
    105 H          12.7928   -1.7246    0.0000 H       1  UNL1        0.0276
    106 H          12.3857   -1.0379    0.0000 H       1  UNL1        0.0276
    107 H           9.7053   -2.5854    0.0000 H       1  UNL1        0.0276
    108 H          10.0964   -3.2813    0.0000 H       1  UNL1        0.0276
    109 H          10.4122    5.7832    0.0000 H       1  UNL1        0.0236
    110 H           9.5662    6.0134    0.0000 H       1  UNL1        0.0236
    111 H           9.3360    5.1673    0.0000 H       1  UNL1        0.0236
    112 H           9.3732    5.2312    0.0000 H       1  UNL1        0.0236
    113 H           8.7508    4.6136    0.0000 H       1  UNL1        0.0236
    114 H           9.3684    3.9912    0.0000 H       1  UNL1        0.0236
    115 H          10.8489   -3.7235    0.0000 H       1  UNL1        0.0271
    116 H          11.6472   -3.7266    0.0000 H       1  UNL1        0.0271
    117 H          13.1919   -3.3243    0.0000 H       1  UNL1        0.0235
    118 H          13.8095   -2.7019    0.0000 H       1  UNL1        0.0235
    119 H          13.1871   -2.0843    0.0000 H       1  UNL1        0.0235
    120 H          12.1571   -3.8843    0.0000 H       1  UNL1        0.0235
    121 H          13.0049   -4.1080    0.0000 H       1  UNL1        0.0235
    122 H          13.2286   -3.2602    0.0000 H       1  UNL1        0.0235
    123 H          12.1907    6.0125    0.0000 H       1  UNL1        0.0937
    124 H          12.2166    8.2523    0.0000 H       1  UNL1        0.0671
    125 H           8.5991   -2.9960    0.0000 H       1  UNL1        0.1085
    126 H          13.6217    8.4261    0.0000 H       1  UNL1        0.0648
    127 H          13.9226    5.9925    0.0000 H       1  UNL1        0.0647
    128 H          13.9485    8.2323    0.0000 H       1  UNL1        0.0647
    129 H           8.5991   -5.2360    0.0000 H       1  UNL1        0.0687
    130 H          11.3564    8.7623    0.0000 H       1  UNL1        0.2101
    131 H           7.1962   -5.4260    0.0000 H       1  UNL1        0.0648
    132 H           6.8671   -2.9960    0.0000 H       1  UNL1        0.0647
    133 H          14.3860    5.6321    0.0000 H       1  UNL1        0.0584
    134 H          15.1830    5.6229    0.0000 H       1  UNL1        0.0584
    135 H           6.8671   -5.2360    0.0000 H       1  UNL1        0.0647
    136 H          13.6332    9.4260    0.0000 H       1  UNL1        0.2100
    137 H          14.8203    8.7223    0.0000 H       1  UNL1        0.2100
    138 H           5.3905   -3.0084    0.0000 H       1  UNL1        0.0587
    139 H           5.7890   -3.6986    0.0000 H       1  UNL1        0.0587
    140 H          10.0021   -5.8060    0.0000 H       1  UNL1        0.0938
    141 H           7.1962   -6.4260    0.0000 H       1  UNL1        0.2100
    142 H          16.1951    6.2762    0.0000 H       1  UNL1        0.2095
    143 H           5.4641   -4.8060    0.0000 H       1  UNL1        0.2100
    144 H          10.8681   -6.9260    0.0000 H       1  UNL1        0.0671
    145 H          10.3312   -8.2360    0.0000 H       1  UNL1        0.0648
    146 H           8.0622   -7.3060    0.0000 H       1  UNL1        0.0647
    147 H          10.0021   -8.4260    0.0000 H       1  UNL1        0.0647
    148 H           5.6720   -1.3060    0.0000 H       1  UNL1        0.0937
    149 H          11.1972   -5.4960    0.0000 H       1  UNL1        0.2101
    150 H           5.1350    0.0040    0.0000 H       1  UNL1        0.0671
    151 H           7.5210   -7.5334    0.0000 H       1  UNL1        0.0584
    152 H           7.1225   -8.2237    0.0000 H       1  UNL1        0.0584
    153 H          11.7341   -7.8060    0.0000 H       1  UNL1        0.2100
    154 H          10.0021   -9.4260    0.0000 H       1  UNL1        0.2100
    155 H           3.7320    0.1940    0.0000 H       1  UNL1        0.0648
    156 H           3.4030   -2.2360    0.0000 H       1  UNL1        0.0621
    157 H           3.4030    0.0040    0.0000 H       1  UNL1        0.0646
    158 H           6.0010    0.5040    0.0000 H       1  UNL1        0.2101
    159 H           7.1962   -9.4260    0.0000 H       1  UNL1        0.2095
    160 H           2.2269   -1.5791    0.0000 H       1  UNL1        0.0255
    161 H           2.0000   -2.4260    0.0000 H       1  UNL1        0.0255
    162 H           2.8469   -2.6530    0.0000 H       1  UNL1        0.0255
    163 H           3.7320    1.1940    0.0000 H       1  UNL1        0.2100
    164 H           2.0000   -0.4260    0.0000 H       1  UNL1        0.2100
@<TRIPOS>BOND
     1     1    38    1
     2     1    53    1
     3     2    50    1
     4     2    55    1
     5     3    50    2
     6     4    53    1
     7     4    57    1
     8     5    55    1
     9     5    61    1
    10     6    54    1
    11     6   130    1
    12     7    56    1
    13     7   136    1
    14     8    59    1
    15     8    65    1
    16     9    58    1
    17     9   137    1
    18    10    60    1
    19    10   141    1
    20    11    62    1
    21    11   142    1
    22    12    63    1
    23    12   143    1
    24    13    64    1
    25    13    70    1
    26    14    65    1
    27    14    68    1
    28    15    66    1
    29    15   149    1
    30    16    67    1
    31    16   153    1
    32    17    70    1
    33    17    74    1
    34    18    69    1
    35    18   154    1
    36    19    71    1
    37    19   158    1
    38    20    72    1
    39    20   159    1
    40    21    73    1
    41    21   163    1
    42    22    75    1
    43    22   164    1
    44    23    24    1
    45    23    26    1
    46    23    28    1
    47    23    37    1
    48    24    25    1
    49    24    33    1
    50    24    77    1
    51    25    27    1
    52    25    34    1
    53    25    40    1
    54    26    31    1
    55    26    35    1
    56    26    43    1
    57    27    29    1
    58    27    30    1
    59    27    78    1
    60    28    30    1
    61    28    79    1
    62    28    80    1
    63    29    38    1
    64    29    47    1
    65    29    48    1
    66    30    81    1
    67    30    82    1
    68    31    32    1
    69    31    41    2
    70    32    36    1
    71    32    44    1
    72    32    83    1
    73    33    41    1
    74    33    84    1
    75    33    85    1
    76    34    42    1
    77    34    86    1
    78    34    87    1
    79    35    39    1
    80    35    88    1
    81    35    89    1
    82    36    39    1
    83    36    45    1
    84    36    50    1
    85    37    90    1
    86    37    91    1
    87    37    92    1
    88    38    42    1
    89    38    93    1
    90    39    94    1
    91    39    95    1
    92    40    96    1
    93    40    97    1
    94    40    98    1
    95    41    99    1
    96    42   100    1
    97    42   101    1
    98    43   102    1
    99    43   103    1
   100    43   104    1
   101    44    46    1
   102    44   105    1
   103    44   106    1
   104    45    49    1
   105    45   107    1
   106    45   108    1
   107    46    49    1
   108    46    51    1
   109    46    52    1
   110    47   109    1
   111    47   110    1
   112    47   111    1
   113    48   112    1
   114    48   113    1
   115    48   114    1
   116    49   115    1
   117    49   116    1
   118    51   117    1
   119    51   118    1
   120    51   119    1
   121    52   120    1
   122    52   121    1
   123    52   122    1
   124    53    54    1
   125    53   123    1
   126    54    56    1
   127    54   124    1
   128    55    59    1
   129    55   125    1
   130    56    58    1
   131    56   126    1
   132    57    58    1
   133    57    62    1
   134    57   127    1
   135    58   128    1
   136    59    60    1
   137    59   129    1
   138    60    63    1
   139    60   131    1
   140    61    63    1
   141    61    64    1
   142    61   132    1
   143    62   133    1
   144    62   134    1
   145    63   135    1
   146    64   138    1
   147    64   139    1
   148    65    66    1
   149    65   140    1
   150    66    67    1
   151    66   144    1
   152    67    69    1
   153    67   145    1
   154    68    69    1
   155    68    72    1
   156    68   146    1
   157    69   147    1
   158    70    71    1
   159    70   148    1
   160    71    73    1
   161    71   150    1
   162    72   151    1
   163    72   152    1
   164    73    75    1
   165    73   155    1
   166    74    75    1
   167    74    76    1
   168    74   156    1
   169    75   157    1
   170    76   160    1
   171    76   161    1
   172    76   162    1
