@<TRIPOS>MOLECULE
IMPHY000592
 40 42 0 0 0
SMALL
GASTEIGER

@<TRIPOS>ATOM
      1 O           6.3580   -2.6518    0.0000 O.2     1  UNL1       -0.4181
      2 O           4.5981    0.3828    0.0000 O.3     1  UNL1       -0.4943
      3 O           2.8660   -2.6172    0.0000 O.3     1  UNL1       -0.4912
      4 O           4.5981   -3.6172    0.0000 O.3     1  UNL1       -0.5009
      5 O           6.3118    3.4172    0.0000 O.3     1  UNL1       -0.4951
      6 O           8.1282   -2.6413    0.0000 O.2     1  UNL1       -0.2452
      7 C           5.4641   -1.1172    0.0000 C.ar    1  UNL1        0.0708
      8 C           6.3580   -0.5825    0.0000 C.ar    1  UNL1        0.0032
      9 C           5.4641   -2.1172    0.0000 C.ar    1  UNL1        0.1880
     10 C           4.5981   -0.6172    0.0000 C.ar    1  UNL1        0.1350
     11 C           6.3465    0.4174    0.0000 C.ar    1  UNL1       -0.0166
     12 C           4.5981   -2.6172    0.0000 C.ar    1  UNL1        0.2026
     13 C           7.2641   -1.0964    0.0000 C.ar    1  UNL1        0.0314
     14 C           3.7320   -2.1172    0.0000 C.ar    1  UNL1        0.1685
     15 C           3.7320   -1.1172    0.0000 C.ar    1  UNL1        0.0262
     16 C           7.2067    0.9274    0.0000 C.ar    1  UNL1       -0.0506
     17 C           5.4747    0.9074    0.0000 C.ar    1  UNL1       -0.0506
     18 C           7.2641   -2.1380    0.0000 C.ar    1  UNL1        0.3379
     19 C           7.1951    1.9273    0.0000 C.ar    1  UNL1       -0.0194
     20 C           5.4632    1.9073    0.0000 C.ar    1  UNL1       -0.0194
     21 C           6.3233    2.4173    0.0000 C.ar    1  UNL1        0.1201
     22 C           3.7320    0.8828    0.0000 C.3     1  UNL1        0.0788
     23 C           2.0000   -2.1172    0.0000 C.3     1  UNL1        0.0790
     24 C           7.1720    3.9272    0.0000 C.3     1  UNL1        0.0788
     25 H           7.7998   -0.7843    0.0000 H       1  UNL1        0.0695
     26 H           3.1951   -0.8072    0.0000 H       1  UNL1        0.0692
     27 H           7.7472    0.6236    0.0000 H       1  UNL1        0.0625
     28 H           4.9414    0.5912    0.0000 H       1  UNL1        0.0625
     29 H           7.7284    2.2435    0.0000 H       1  UNL1        0.0654
     30 H           4.9227    2.2111    0.0000 H       1  UNL1        0.0654
     31 H           4.0611   -3.9272    0.0000 H       1  UNL1        0.2924
     32 H           4.0420    1.4198    0.0000 H       1  UNL1        0.0660
     33 H           3.1951    1.1928    0.0000 H       1  UNL1        0.0660
     34 H           3.4220    0.3459    0.0000 H       1  UNL1        0.0660
     35 H           2.3100   -1.5802    0.0000 H       1  UNL1        0.0660
     36 H           1.4631   -1.8072    0.0000 H       1  UNL1        0.0660
     37 H           1.6900   -2.6541    0.0000 H       1  UNL1        0.0660
     38 H           7.4882    3.3939    0.0000 H       1  UNL1        0.0660
     39 H           7.7053    4.2434    0.0000 H       1  UNL1        0.0660
     40 H           6.8558    4.4605    0.0000 H       1  UNL1        0.0660
@<TRIPOS>BOND
     1     1     9   ar
     2     1    18   ar
     3     2    10    1
     4     2    22    1
     5     3    14    1
     6     3    23    1
     7     4    12    1
     8     4    31    1
     9     5    21    1
    10     5    24    1
    11     6    18    2
    12     7     8   ar
    13     7     9   ar
    14     7    10   ar
    15     8    11    1
    16     8    13   ar
    17     9    12   ar
    18    10    15   ar
    19    11    16   ar
    20    11    17   ar
    21    12    14   ar
    22    13    18   ar
    23    13    25    1
    24    14    15   ar
    25    15    26    1
    26    16    19   ar
    27    16    27    1
    28    17    20   ar
    29    17    28    1
    30    19    21   ar
    31    19    29    1
    32    20    21   ar
    33    20    30    1
    34    22    32    1
    35    22    33    1
    36    22    34    1
    37    23    35    1
    38    23    36    1
    39    23    37    1
    40    24    38    1
    41    24    39    1
    42    24    40    1
