@<TRIPOS>MOLECULE
IMPHY009645
 35 37 0 0 0
SMALL
GASTEIGER

@<TRIPOS>ATOM
      1 O           6.3580   -2.0519    0.0000 O.2     1  UNL1       -0.4220
      2 O           2.8660   -0.0172    0.0000 O.3     1  UNL1       -0.4914
      3 O           2.8660   -2.0172    0.0000 O.3     1  UNL1       -0.4913
      4 O           8.1282   -2.0414    0.0000 O.2     1  UNL1       -0.2452
      5 C           5.4641   -0.5172    0.0000 C.ar    1  UNL1        0.0290
      6 C           6.3580    0.0174    0.0000 C.ar    1  UNL1       -0.0003
      7 C           5.4641   -1.5172    0.0000 C.ar    1  UNL1        0.1433
      8 C           6.3465    1.0174    0.0000 C.ar    1  UNL1       -0.0170
      9 C           4.5981   -0.0172    0.0000 C.ar    1  UNL1       -0.0051
     10 C           3.7320   -0.5172    0.0000 C.ar    1  UNL1        0.1623
     11 C           4.5981   -2.0172    0.0000 C.ar    1  UNL1        0.0267
     12 C           3.7320   -1.5172    0.0000 C.ar    1  UNL1        0.1650
     13 C           7.2641   -0.4964    0.0000 C.ar    1  UNL1        0.0313
     14 C           7.2641   -1.5380    0.0000 C.ar    1  UNL1        0.3378
     15 C           7.2067    1.5273    0.0000 C.ar    1  UNL1       -0.0540
     16 C           5.4747    1.5073    0.0000 C.ar    1  UNL1       -0.0540
     17 C           7.1951    2.5273    0.0000 C.ar    1  UNL1       -0.0612
     18 C           5.4632    2.5072    0.0000 C.ar    1  UNL1       -0.0612
     19 C           6.3233    3.0172    0.0000 C.ar    1  UNL1       -0.0617
     20 C           2.0000   -0.5172    0.0000 C.3     1  UNL1        0.0790
     21 C           2.8660   -3.0172    0.0000 C.3     1  UNL1        0.0790
     22 H           4.5981    0.6028    0.0000 H       1  UNL1        0.0662
     23 H           4.5981   -2.6372    0.0000 H       1  UNL1        0.0692
     24 H           7.7998   -0.1843    0.0000 H       1  UNL1        0.0695
     25 H           7.7472    1.2236    0.0000 H       1  UNL1        0.0624
     26 H           4.9414    1.1911    0.0000 H       1  UNL1        0.0624
     27 H           7.7284    2.8435    0.0000 H       1  UNL1        0.0618
     28 H           4.9227    2.8110    0.0000 H       1  UNL1        0.0618
     29 H           6.3162    3.6372    0.0000 H       1  UNL1        0.0618
     30 H           1.6900    0.0197    0.0000 H       1  UNL1        0.0660
     31 H           1.4631   -0.8272    0.0000 H       1  UNL1        0.0660
     32 H           2.3100   -1.0542    0.0000 H       1  UNL1        0.0660
     33 H           2.2460   -3.0172    0.0000 H       1  UNL1        0.0660
     34 H           2.8660   -3.6372    0.0000 H       1  UNL1        0.0660
     35 H           3.4860   -3.0172    0.0000 H       1  UNL1        0.0660
@<TRIPOS>BOND
     1     1     7   ar
     2     1    14   ar
     3     2    10    1
     4     2    20    1
     5     3    12    1
     6     3    21    1
     7     4    14    2
     8     5     6   ar
     9     5     7   ar
    10     5     9   ar
    11     6     8    1
    12     6    13   ar
    13     7    11   ar
    14     8    15   ar
    15     8    16   ar
    16     9    10   ar
    17     9    22    1
    18    10    12   ar
    19    11    12   ar
    20    11    23    1
    21    13    14   ar
    22    13    24    1
    23    15    17   ar
    24    15    25    1
    25    16    18   ar
    26    16    26    1
    27    17    19   ar
    28    17    27    1
    29    18    19   ar
    30    18    28    1
    31    19    29    1
    32    20    30    1
    33    20    31    1
    34    20    32    1
    35    21    33    1
    36    21    34    1
    37    21    35    1
