@<TRIPOS>MOLECULE
IMPHY011872
 40 41 0 0 0
SMALL
GASTEIGER

@<TRIPOS>ATOM
      1 O           6.0013    1.8905    0.0000 O.3     1  UNL1       -0.3650
      2 C           6.0010    0.8900    0.0000 C.3     1  UNL1        0.0935
      3 C           5.1350    1.3900    0.0000 C.3     1  UNL1        0.0889
      4 C           4.2690    0.8900    0.0000 C.3     1  UNL1       -0.0153
      5 C           6.0010   -0.1100    0.0000 C.3     1  UNL1       -0.0181
      6 C           3.4030    1.3900    0.0000 C.3     1  UNL1       -0.0144
      7 C           6.8671    0.3900    0.0000 C.3     1  UNL1       -0.0333
      8 C           5.7349   -1.2348    0.0000 C.3     1  UNL1       -0.0318
      9 C           2.8100    2.1953    0.0000 C.3     1  UNL1       -0.0563
     10 C           3.6847    2.3495    0.0000 C.3     1  UNL1       -0.0563
     11 C           2.5369    0.8900    0.0000 C.2     1  UNL1       -0.0819
     12 C           4.8689   -1.7348    0.0000 C.2     1  UNL1       -0.0846
     13 C           2.5369   -0.1100    0.0000 C.2     1  UNL1       -0.0834
     14 C           3.9030   -1.4760    0.0000 C.2     1  UNL1       -0.0728
     15 C           3.4030   -0.6100    0.0000 C.3     1  UNL1       -0.0138
     16 C           3.2942   -2.2694    0.0000 C.3     1  UNL1       -0.0435
     17 H           4.8249    1.9269    0.0000 H       1  UNL1        0.0625
     18 H           3.8705    0.4151    0.0000 H       1  UNL1        0.0299
     19 H           4.6675    0.4151    0.0000 H       1  UNL1        0.0299
     20 H           6.4837   -0.4991    0.0000 H       1  UNL1        0.0297
     21 H           5.3852   -0.0381    0.0000 H       1  UNL1        0.0297
     22 H           6.5571   -0.1469    0.0000 H       1  UNL1        0.0258
     23 H           7.4040    0.0800    0.0000 H       1  UNL1        0.0258
     24 H           7.1771    0.9270    0.0000 H       1  UNL1        0.0258
     25 H           5.9013   -1.8321    0.0000 H       1  UNL1        0.0308
     26 H           6.3548   -1.2226    0.0000 H       1  UNL1        0.0308
     27 H           4.2796    2.1748    0.0000 H       1  UNL1        0.0238
     28 H           3.8594    2.9444    0.0000 H       1  UNL1        0.0238
     29 H           3.0898    2.5242    0.0000 H       1  UNL1        0.0238
     30 H           3.3093    2.5629    0.0000 H       1  UNL1        0.0238
     31 H           2.4424    2.6946    0.0000 H       1  UNL1        0.0238
     32 H           2.3108    1.8277    0.0000 H       1  UNL1        0.0238
     33 H           2.0000    1.2000    0.0000 H       1  UNL1        0.0574
     34 H           4.9498   -2.3495    0.0000 H       1  UNL1        0.0572
     35 H           2.0000   -0.4200    0.0000 H       1  UNL1        0.0572
     36 H           4.0135   -0.5023    0.0000 H       1  UNL1        0.0352
     37 H           2.9646   -1.0484    0.0000 H       1  UNL1        0.0352
     38 H           2.8023   -1.8919    0.0000 H       1  UNL1        0.0274
     39 H           2.9168   -2.7612    0.0000 H       1  UNL1        0.0274
     40 H           3.7861   -2.6468    0.0000 H       1  UNL1        0.0274
@<TRIPOS>BOND
     1     1     2    1
     2     1     3    1
     3     2     3    1
     4     2     5    1
     5     2     7    1
     6     3     4    1
     7     3    17    1
     8     4     6    1
     9     4    18    1
    10     4    19    1
    11     5     8    1
    12     5    20    1
    13     5    21    1
    14     6     9    1
    15     6    10    1
    16     6    11    1
    17     7    22    1
    18     7    23    1
    19     7    24    1
    20     8    12    1
    21     8    25    1
    22     8    26    1
    23     9    30    1
    24     9    31    1
    25     9    32    1
    26    10    27    1
    27    10    28    1
    28    10    29    1
    29    11    13    2
    30    11    33    1
    31    12    14    2
    32    12    34    1
    33    13    15    1
    34    13    35    1
    35    14    15    1
    36    14    16    1
    37    15    36    1
    38    15    37    1
    39    16    38    1
    40    16    39    1
    41    16    40    1
