@<TRIPOS>MOLECULE
IMPHY006438
 46 49 0 0 0
SMALL
GASTEIGER

@<TRIPOS>ATOM
      1 O           9.2080   -2.3715    0.0000 O.3     1  UNL1       -0.3944
      2 N           6.9654    1.7077    0.0000 N.3     1  UNL1       -0.2937
      3 N           4.5124    0.5902    0.0000 N.ar    1  UNL1       -0.3564
      4 C           6.2962    0.9645    0.0000 C.3     1  UNL1        0.0512
      5 C           7.6200   -0.2554    0.0000 C.3     1  UNL1       -0.0298
      6 C           6.6028   -0.0310    0.0000 C.3     1  UNL1       -0.0283
      7 C           8.3170    0.5187    0.0000 C.3     1  UNL1       -0.0367
      8 C           7.9875    1.5068    0.0000 C.3     1  UNL1       -0.0002
      9 C           5.3181    1.1724    0.0000 C.ar    1  UNL1        0.0376
     10 C           6.6564    2.6587    0.0000 C.3     1  UNL1        0.0036
     11 C           7.9253   -1.2076    0.0000 C.3     1  UNL1        0.0029
     12 C           5.0091    2.1235    0.0000 C.ar    1  UNL1       -0.0164
     13 C           5.6782    2.8666    0.0000 C.3     1  UNL1       -0.0125
     14 C           4.0150    2.1209    0.0000 C.ar    1  UNL1        0.0032
     15 C           3.7086    1.1752    0.0000 C.ar    1  UNL1        0.0470
     16 C           8.9027   -1.4193    0.0000 C.3     1  UNL1        0.0507
     17 C           7.2533   -1.9482    0.0000 C.2     1  UNL1       -0.0856
     18 C           3.3334    2.9004    0.0000 C.ar    1  UNL1       -0.0523
     19 C           2.6994    0.9435    0.0000 C.ar    1  UNL1       -0.0378
     20 C           2.3191    2.6921    0.0000 C.ar    1  UNL1       -0.0611
     21 C           7.5587   -2.9004    0.0000 C.2     1  UNL1       -0.1023
     22 C           2.0000    1.7070    0.0000 C.ar    1  UNL1       -0.0598
     23 H           5.7226    0.3373    0.0000 H       1  UNL1        0.0527
     24 H           8.4511   -0.4337    0.0000 H       1  UNL1        0.0308
     25 H           5.9878   -0.1094    0.0000 H       1  UNL1        0.0287
     26 H           6.5748   -0.6503    0.0000 H       1  UNL1        0.0287
     27 H           8.6999    0.0311    0.0000 H       1  UNL1        0.0280
     28 H           8.8629    0.8126    0.0000 H       1  UNL1        0.0280
     29 H           8.6005    1.5994    0.0000 H       1  UNL1        0.0427
     30 H           8.0011    2.1267    0.0000 H       1  UNL1        0.0427
     31 H           7.2703    2.7450    0.0000 H       1  UNL1        0.0430
     32 H           6.6780    3.2784    0.0000 H       1  UNL1        0.0430
     33 H           8.1146   -1.7980    0.0000 H       1  UNL1        0.0368
     34 H           5.9105    3.4415    0.0000 H       1  UNL1        0.0326
     35 H           5.1524    3.1952    0.0000 H       1  UNL1        0.0326
     36 H           4.5113   -0.0298    0.0000 H       1  UNL1        0.1656
     37 H           9.5170   -1.3354    0.0000 H       1  UNL1        0.0563
     38 H           8.9267   -0.7998    0.0000 H       1  UNL1        0.0563
     39 H           6.6474   -1.8169    0.0000 H       1  UNL1        0.0570
     40 H           3.5313    3.4880    0.0000 H       1  UNL1        0.0624
     41 H           2.5152    0.3515    0.0000 H       1  UNL1        0.0638
     42 H           1.9056    3.1541    0.0000 H       1  UNL1        0.0618
     43 H           9.8140   -2.5028    0.0000 H       1  UNL1        0.2094
     44 H           7.1420   -3.3596    0.0000 H       1  UNL1        0.0532
     45 H           8.1646   -3.0317    0.0000 H       1  UNL1        0.0532
     46 H           1.3942    1.5752    0.0000 H       1  UNL1        0.0618
@<TRIPOS>BOND
     1     1    16    1
     2     1    43    1
     3     2     4    1
     4     2     8    1
     5     2    10    1
     6     3     9   ar
     7     3    15   ar
     8     3    36    1
     9     4     6    1
    10     4     9    1
    11     4    23    1
    12     5     6    1
    13     5     7    1
    14     5    11    1
    15     5    24    1
    16     6    25    1
    17     6    26    1
    18     7     8    1
    19     7    27    1
    20     7    28    1
    21     8    29    1
    22     8    30    1
    23     9    12   ar
    24    10    13    1
    25    10    31    1
    26    10    32    1
    27    11    16    1
    28    11    17    1
    29    11    33    1
    30    12    13    1
    31    12    14   ar
    32    13    34    1
    33    13    35    1
    34    14    15   ar
    35    14    18   ar
    36    15    19   ar
    37    16    37    1
    38    16    38    1
    39    17    21    2
    40    17    39    1
    41    18    20   ar
    42    18    40    1
    43    19    22   ar
    44    19    41    1
    45    20    22   ar
    46    20    42    1
    47    21    44    1
    48    21    45    1
    49    22    46    1
