@<TRIPOS>MOLECULE
IMPHY009392
 63 66 0 0 0
SMALL
GASTEIGER

@<TRIPOS>ATOM
      1 O           7.9288   -1.4509    0.0000 O.3     1  UNL1       -0.3876
      2 O           5.3307    1.0491    0.0000 O.3     1  UNL1       -0.4586
      3 O           7.0628    2.0491    0.0000 O.3     1  UNL1       -0.3875
      4 O           8.5179    2.5486    0.0000 O.2     1  UNL1       -0.2974
      5 O           2.5357   -2.5032    0.0000 O.3     1  UNL1       -0.3915
      6 O           6.1968    2.5491    0.0000 O.2     1  UNL1       -0.2512
      7 C           7.9288   -0.4509    0.0000 C.3     1  UNL1        0.0780
      8 C           7.9288    0.5491    0.0000 C.3     1  UNL1        0.0358
      9 C           7.0628   -0.9509    0.0000 C.3     1  UNL1       -0.0010
     10 C           6.1968   -0.4509    0.0000 C.3     1  UNL1        0.0134
     11 C           7.0628    1.0491    0.0000 C.3     1  UNL1        0.1010
     12 C           5.2868   -0.9578    0.0000 C.3     1  UNL1       -0.0043
     13 C           6.1968    0.5491    0.0000 C.3     1  UNL1        0.1333
     14 C           8.8750    0.8538    0.0000 C.3     1  UNL1        0.0278
     15 C           8.8750   -0.7556    0.0000 C.3     1  UNL1       -0.0224
     16 C           9.4586    0.0491    0.0000 C.3     1  UNL1       -0.0402
     17 C           7.0789   -1.9924    0.0000 C.3     1  UNL1       -0.0286
     18 C           7.9288    1.5491    0.0000 C.3     1  UNL1       -0.0538
     19 C           5.2787   -1.9994    0.0000 C.2     1  UNL1       -0.0647
     20 C           4.3599   -0.3937    0.0000 C.3     1  UNL1       -0.0412
     21 C           6.1808   -2.5202    0.0000 C.2     1  UNL1       -0.0838
     22 C           5.2945    0.0422    0.0000 C.3     1  UNL1       -0.0555
     23 C           4.3433   -2.5491    0.0000 C.3     1  UNL1       -0.0051
     24 C           9.1857    1.8043    0.0000 C.2     1  UNL1        0.1341
     25 C           3.4120   -0.9216    0.0000 C.3     1  UNL1       -0.0258
     26 C           3.4037   -2.0066    0.0000 C.3     1  UNL1        0.0590
     27 C          10.1642    2.0106    0.0000 C.3     1  UNL1       -0.0058
     28 C           5.3307    2.0491    0.0000 C.2     1  UNL1        0.3043
     29 C           4.4647    2.5491    0.0000 C.3     1  UNL1        0.0332
     30 H           7.8022   -1.3702    0.0000 H       1  UNL1        0.0336
     31 H           6.9329   -0.0259    0.0000 H       1  UNL1        0.0349
     32 H           6.5259    1.3591    0.0000 H       1  UNL1        0.0637
     33 H           6.1968    1.1691    0.0000 H       1  UNL1        0.0763
     34 H           9.4875    0.9500    0.0000 H       1  UNL1        0.0384
     35 H           8.6240   -1.3225    0.0000 H       1  UNL1        0.0293
     36 H           9.4124   -1.0649    0.0000 H       1  UNL1        0.0293
     37 H           9.9195   -0.3656    0.0000 H       1  UNL1        0.0273
     38 H           9.9195    0.4638    0.0000 H       1  UNL1        0.0273
     39 H           7.2969   -2.5728    0.0000 H       1  UNL1        0.0311
     40 H           7.6880   -1.8769    0.0000 H       1  UNL1        0.0311
     41 H           8.5488    1.5491    0.0000 H       1  UNL1        0.0237
     42 H           7.9288    2.1691    0.0000 H       1  UNL1        0.0237
     43 H           7.3088    1.5491    0.0000 H       1  UNL1        0.0237
     44 H           4.7681    0.0730    0.0000 H       1  UNL1        0.0274
     45 H           3.9700    0.0884    0.0000 H       1  UNL1        0.0274
     46 H           6.1832   -3.1402    0.0000 H       1  UNL1        0.0572
     47 H           8.4658   -1.7609    0.0000 H       1  UNL1        0.2102
     48 H           5.9145    0.0374    0.0000 H       1  UNL1        0.0238
     49 H           5.2993    0.6622    0.0000 H       1  UNL1        0.0238
     50 H           4.6745    0.0470    0.0000 H       1  UNL1        0.0238
     51 H           3.9460   -3.0251    0.0000 H       1  UNL1        0.0335
     52 H           4.7443   -3.0220    0.0000 H       1  UNL1        0.0335
     53 H           3.2075   -0.3363    0.0000 H       1  UNL1        0.0290
     54 H           2.8004   -1.0230    0.0000 H       1  UNL1        0.0290
     55 H           2.8686   -1.6935    0.0000 H       1  UNL1        0.0596
     56 H           7.5997    2.3591    0.0000 H       1  UNL1        0.2100
     57 H          10.2921    1.4039    0.0000 H       1  UNL1        0.0306
     58 H          10.7709    2.1384    0.0000 H       1  UNL1        0.0306
     59 H          10.0364    2.6172    0.0000 H       1  UNL1        0.0306
     60 H           2.0000   -2.1912    0.0000 H       1  UNL1        0.2098
     61 H           4.7747    3.0860    0.0000 H       1  UNL1        0.0342
     62 H           3.9278    2.8591    0.0000 H       1  UNL1        0.0342
     63 H           4.1547    2.0122    0.0000 H       1  UNL1        0.0342
@<TRIPOS>BOND
     1     7     1    1
     2     1    47    1
     3    13     2    1
     4     2    28    1
     5    11     3    1
     6     3    56    1
     7     4    24    2
     8    26     5    1
     9     5    60    1
    10     6    28    2
    11     7     8    1
    12     7     9    1
    13     7    15    1
    14     8    11    1
    15     8    14    1
    16     8    18    1
    17     9    10    1
    18     9    17    1
    19     9    30    1
    20    10    12    1
    21    10    13    1
    22    10    31    1
    23    11    13    1
    24    11    32    1
    25    12    19    1
    26    12    20    1
    27    12    22    1
    28    13    33    1
    29    14    16    1
    30    14    24    1
    31    14    34    1
    32    15    16    1
    33    15    35    1
    34    15    36    1
    35    16    37    1
    36    16    38    1
    37    17    21    1
    38    17    39    1
    39    17    40    1
    40    18    41    1
    41    18    42    1
    42    18    43    1
    43    19    21    2
    44    19    23    1
    45    20    25    1
    46    20    44    1
    47    20    45    1
    48    21    46    1
    49    22    48    1
    50    22    49    1
    51    22    50    1
    52    23    26    1
    53    23    51    1
    54    23    52    1
    55    24    27    1
    56    25    26    1
    57    25    53    1
    58    25    54    1
    59    26    55    1
    60    27    57    1
    61    27    58    1
    62    27    59    1
    63    28    29    1
    64    29    61    1
    65    29    62    1
    66    29    63    1
