@<TRIPOS>MOLECULE
IMPHY003087
 108 114 0 0 0
SMALL
GASTEIGER

@<TRIPOS>ATOM
      1 O          11.2303    1.7624    0.0000 O.3     1  UNL1       -0.3876
      2 O          11.1848    4.7032    0.0000 O.3     1  UNL1       -0.4628
      3 O           9.4651   -3.4411    0.0000 O.3     1  UNL1       -0.3454
      4 O           7.6262    5.2761    0.0000 O.3     1  UNL1       -0.4571
      5 O           7.7331   -3.4411    0.0000 O.3     1  UNL1       -0.3431
      6 O           8.2613    6.9411    0.0000 O.2     1  UNL1       -0.2456
      7 O          12.6815    5.5750    0.0000 O.2     1  UNL1       -0.2546
      8 O           9.4651   -5.4411    0.0000 O.3     1  UNL1       -0.3841
      9 O           7.7331   -6.4411    0.0000 O.3     1  UNL1       -0.3744
     10 O           6.0010   -5.4411    0.0000 O.3     1  UNL1       -0.3402
     11 O           5.1350   -3.9411    0.0000 O.3     1  UNL1       -0.3405
     12 O           4.2690   -6.4411    0.0000 O.3     1  UNL1       -0.3841
     13 O           2.5369   -5.4411    0.0000 O.3     1  UNL1       -0.3864
     14 O           2.5369   -3.4411    0.0000 O.3     1  UNL1       -0.3865
     15 O           5.1350   -1.9411    0.0000 O.3     1  UNL1       -0.3924
     16 C          10.3623    2.2591    0.0000 C.3     1  UNL1        0.0785
     17 C          10.3662    1.2591    0.0000 C.3     1  UNL1       -0.0081
     18 C           9.4944    2.7558    0.0000 C.3     1  UNL1        0.0071
     19 C           9.5021    0.7558    0.0000 C.3     1  UNL1       -0.0299
     20 C           9.4901   -0.2858    0.0000 C.3     1  UNL1       -0.0259
     21 C          10.3901   -0.8101    0.0000 C.3     1  UNL1       -0.0330
     22 C           9.6999    3.7284    0.0000 C.3     1  UNL1        0.0290
     23 C           8.6303    2.2524    0.0000 C.3     1  UNL1       -0.0441
     24 C           8.6342    1.2524    0.0000 C.3     1  UNL1       -0.0488
     25 C          11.0968    2.9290    0.0000 C.3     1  UNL1        0.0146
     26 C          11.2781    0.7558    0.0000 C.3     1  UNL1       -0.0470
     27 C          10.6882    3.8352    0.0000 C.3     1  UNL1        0.1126
     28 C          11.2902   -0.2858    0.0000 C.3     1  UNL1       -0.0493
     29 C           8.5402   -0.8101    0.0000 C.3     1  UNL1       -0.0448
     30 C           8.6264    3.2524    0.0000 C.3     1  UNL1       -0.0563
     31 C          10.4027   -1.8950    0.0000 C.3     1  UNL1       -0.0232
     32 C           8.6260    0.2175    0.0000 C.3     1  UNL1       -0.0590
     33 C           8.5276   -1.8950    0.0000 C.3     1  UNL1       -0.0260
     34 C           9.4651   -2.4411    0.0000 C.3     1  UNL1        0.0621
     35 C           9.0292    4.4701    0.0000 C.2     1  UNL1       -0.0187
     36 C           8.0348    4.3634    0.0000 C.3     1  UNL1        0.1148
     37 C           9.2350    5.4487    0.0000 C.2     1  UNL1        0.0253
     38 C           8.3679    5.9468    0.0000 C.2     1  UNL1        0.3323
     39 C           8.5991   -3.9411    0.0000 C.3     1  UNL1        0.1881
     40 C          12.1848    4.7070    0.0000 C.2     1  UNL1        0.2945
     41 C           8.5991   -4.9411    0.0000 C.3     1  UNL1        0.1344
     42 C           7.7331   -5.4411    0.0000 C.3     1  UNL1        0.1174
     43 C           6.8671   -3.9411    0.0000 C.3     1  UNL1        0.0877
     44 C           6.8671   -4.9411    0.0000 C.3     1  UNL1        0.1162
     45 C           6.0010   -3.4411    0.0000 C.3     1  UNL1       -0.0360
     46 C           5.1350   -4.9411    0.0000 C.3     1  UNL1        0.1884
     47 C           8.5991   -6.9411    0.0000 C.3     1  UNL1        0.0370
     48 C           4.2690   -5.4411    0.0000 C.3     1  UNL1        0.1341
     49 C           3.4030   -4.9411    0.0000 C.3     1  UNL1        0.1141
     50 C           4.2690   -3.4411    0.0000 C.3     1  UNL1        0.1130
     51 C           3.4030   -3.9411    0.0000 C.3     1  UNL1        0.1119
     52 C           4.2690   -2.4411    0.0000 C.3     1  UNL1        0.0730
     53 H          11.0974    1.6926    0.0000 H       1  UNL1        0.0331
     54 H          10.2366    0.3279    0.0000 H       1  UNL1        0.0310
     55 H          11.1295   -1.2294    0.0000 H       1  UNL1        0.0307
     56 H           9.9206    4.3078    0.0000 H       1  UNL1        0.0389
     57 H           8.4160    2.8342    0.0000 H       1  UNL1        0.0272
     58 H           8.0201    2.1424    0.0000 H       1  UNL1        0.0272
     59 H           8.0232    1.3577    0.0000 H       1  UNL1        0.0268
     60 H           8.4244    0.6690    0.0000 H       1  UNL1        0.0268
     61 H          11.4642    2.4296    0.0000 H       1  UNL1        0.0329
     62 H          11.6321    3.2418    0.0000 H       1  UNL1        0.0329
     63 H          11.8902    0.6567    0.0000 H       1  UNL1        0.0269
     64 H          11.4804    1.3418    0.0000 H       1  UNL1        0.0269
     65 H          10.3487    4.3540    0.0000 H       1  UNL1        0.0741
     66 H          11.5060   -0.8670    0.0000 H       1  UNL1        0.0268
     67 H          11.8998   -0.1727    0.0000 H       1  UNL1        0.0268
     68 H           8.3379   -0.2240    0.0000 H       1  UNL1        0.0271
     69 H           7.9281   -0.9091    0.0000 H       1  UNL1        0.0271
     70 H           8.9344    3.7905    0.0000 H       1  UNL1        0.0236
     71 H           8.0883    3.5603    0.0000 H       1  UNL1        0.0236
     72 H           8.3185    2.7143    0.0000 H       1  UNL1        0.0236
     73 H          10.6185   -2.4762    0.0000 H       1  UNL1        0.0293
     74 H          11.0123   -1.7819    0.0000 H       1  UNL1        0.0293
     75 H           8.9380    0.7533    0.0000 H       1  UNL1        0.0235
     76 H           8.0902    0.5296    0.0000 H       1  UNL1        0.0235
     77 H           8.3139   -0.3182    0.0000 H       1  UNL1        0.0235
     78 H           7.9180   -1.7819    0.0000 H       1  UNL1        0.0290
     79 H           8.3118   -2.4762    0.0000 H       1  UNL1        0.0290
     80 H          10.0027   -2.7501    0.0000 H       1  UNL1        0.0597
     81 H          11.7660    2.0745    0.0000 H       1  UNL1        0.2102
     82 H           7.4456    4.1706    0.0000 H       1  UNL1        0.0746
     83 H           8.1650    3.7573    0.0000 H       1  UNL1        0.0746
     84 H           9.8008    5.7020    0.0000 H       1  UNL1        0.0690
     85 H           8.5991   -3.3211    0.0000 H       1  UNL1        0.0937
     86 H          12.4969    4.1713    0.0000 H       1  UNL1        0.1512
     87 H           8.5991   -5.5611    0.0000 H       1  UNL1        0.0671
     88 H           7.1962   -5.7511    0.0000 H       1  UNL1        0.0650
     89 H           6.8671   -3.3211    0.0000 H       1  UNL1        0.0621
     90 H           6.3301   -4.6311    0.0000 H       1  UNL1        0.0650
     91 H          10.0021   -5.1311    0.0000 H       1  UNL1        0.2101
     92 H           6.3110   -2.9042    0.0000 H       1  UNL1        0.0255
     93 H           5.4641   -3.1311    0.0000 H       1  UNL1        0.0255
     94 H           5.6910   -3.9781    0.0000 H       1  UNL1        0.0255
     95 H           5.1350   -5.5611    0.0000 H       1  UNL1        0.0938
     96 H           8.2891   -7.4781    0.0000 H       1  UNL1        0.0524
     97 H           9.1360   -7.2511    0.0000 H       1  UNL1        0.0524
     98 H           8.9091   -6.4042    0.0000 H       1  UNL1        0.0524
     99 H           3.7320   -5.7511    0.0000 H       1  UNL1        0.0671
    100 H           2.8660   -4.6311    0.0000 H       1  UNL1        0.0648
    101 H           4.8059   -3.1311    0.0000 H       1  UNL1        0.0647
    102 H           3.4030   -3.3211    0.0000 H       1  UNL1        0.0647
    103 H           3.7320   -6.7511    0.0000 H       1  UNL1        0.2101
    104 H           4.0569   -1.8585    0.0000 H       1  UNL1        0.0584
    105 H           3.6584   -2.5488    0.0000 H       1  UNL1        0.0584
    106 H           2.0000   -5.1311    0.0000 H       1  UNL1        0.2100
    107 H           2.5369   -2.8211    0.0000 H       1  UNL1        0.2100
    108 H           5.1350   -1.3211    0.0000 H       1  UNL1        0.2095
@<TRIPOS>BOND
     1    16     1    1
     2     1    81    1
     3    27     2    1
     4     2    40    1
     5    34     3    1
     6    39     3    1
     7     4    36    1
     8     4    38    1
     9     5    39    1
    10     5    43    1
    11     6    38    2
    12     7    40    2
    13    41     8    1
    14     8    91    1
    15    42     9    1
    16     9    47    1
    17    44    10    1
    18    46    10    1
    19    11    46    1
    20    11    50    1
    21    48    12    1
    22    12   103    1
    23    49    13    1
    24    13   106    1
    25    51    14    1
    26    14   107    1
    27    15    52    1
    28    15   108    1
    29    16    17    1
    30    16    18    1
    31    16    25    1
    32    17    19    1
    33    17    26    1
    34    17    53    1
    35    18    22    1
    36    18    23    1
    37    18    30    1
    38    19    20    1
    39    19    24    1
    40    19    54    1
    41    20    21    1
    42    20    29    1
    43    20    32    1
    44    21    28    1
    45    21    31    1
    46    21    55    1
    47    22    27    1
    48    22    35    1
    49    22    56    1
    50    23    24    1
    51    23    57    1
    52    23    58    1
    53    24    59    1
    54    24    60    1
    55    25    27    1
    56    25    61    1
    57    25    62    1
    58    26    28    1
    59    26    63    1
    60    26    64    1
    61    27    65    1
    62    28    66    1
    63    28    67    1
    64    29    33    1
    65    29    68    1
    66    29    69    1
    67    30    70    1
    68    30    71    1
    69    30    72    1
    70    31    34    1
    71    31    73    1
    72    31    74    1
    73    32    75    1
    74    32    76    1
    75    32    77    1
    76    33    34    1
    77    33    78    1
    78    33    79    1
    79    34    80    1
    80    35    36    1
    81    35    37    2
    82    36    82    1
    83    36    83    1
    84    37    38    1
    85    37    84    1
    86    39    41    1
    87    39    85    1
    88    40    86    1
    89    41    42    1
    90    41    87    1
    91    42    44    1
    92    42    88    1
    93    43    44    1
    94    43    45    1
    95    43    89    1
    96    44    90    1
    97    45    92    1
    98    45    93    1
    99    45    94    1
   100    46    48    1
   101    46    95    1
   102    47    96    1
   103    47    97    1
   104    47    98    1
   105    48    49    1
   106    48    99    1
   107    49    51    1
   108    49   100    1
   109    50    51    1
   110    50    52    1
   111    50   101    1
   112    51   102    1
   113    52   104    1
   114    52   105    1
