@<TRIPOS>MOLECULE
IMPHY012372
 131 138 0 0 0
SMALL
GASTEIGER

@<TRIPOS>ATOM
      1 O          14.8541   -0.5273    0.0000 O.3     1  UNL1       -0.3877
      2 O           9.4651    0.5458    0.0000 O.3     1  UNL1       -0.3445
      3 O          17.0467   -5.0984    0.0000 O.3     1  UNL1       -0.4571
      4 O           7.7331    0.5458    0.0000 O.3     1  UNL1       -0.3421
      5 O          15.7840   -6.3558    0.0000 O.2     1  UNL1       -0.2456
      6 O           9.4651   -1.4542    0.0000 O.3     1  UNL1       -0.4537
      7 O           7.7331   -2.4542    0.0000 O.3     1  UNL1       -0.3733
      8 O           6.0010   -1.4542    0.0000 O.3     1  UNL1       -0.3402
      9 O           5.1350    0.0458    0.0000 O.3     1  UNL1       -0.3405
     10 O           8.5991   -2.9542    0.0000 O.2     1  UNL1       -0.2512
     11 O           4.2690   -2.4542    0.0000 O.3     1  UNL1       -0.3841
     12 O           2.5369   -1.4542    0.0000 O.3     1  UNL1       -0.3864
     13 O           2.5369    0.5458    0.0000 O.3     1  UNL1       -0.3865
     14 O           5.1350    2.0458    0.0000 O.3     1  UNL1       -0.3460
     15 O           6.0010    3.5458    0.0000 O.3     1  UNL1       -0.3405
     16 O           3.4030    3.0458    0.0000 O.3     1  UNL1       -0.3841
     17 O           3.4030    5.0458    0.0000 O.3     1  UNL1       -0.3864
     18 O           5.1350    6.0458    0.0000 O.3     1  UNL1       -0.3865
     19 O           7.7331    4.5458    0.0000 O.3     1  UNL1       -0.3924
     20 C          14.8503   -1.5273    0.0000 C.3     1  UNL1        0.0751
     21 C          13.9862   -1.0240    0.0000 C.3     1  UNL1       -0.0083
     22 C          13.1182   -1.5206    0.0000 C.3     1  UNL1       -0.0299
     23 C          14.8464   -2.5273    0.0000 C.3     1  UNL1        0.0036
     24 C          12.2102   -1.0103    0.0000 C.3     1  UNL1       -0.0259
     25 C          12.2062    0.0314    0.0000 C.3     1  UNL1       -0.0330
     26 C          13.1144   -2.5206    0.0000 C.3     1  UNL1       -0.0488
     27 C          13.9785   -3.0240    0.0000 C.3     1  UNL1       -0.0442
     28 C          15.7915   -2.8357    0.0000 C.3     1  UNL1       -0.0081
     29 C          14.0063    0.0175    0.0000 C.3     1  UNL1       -0.0470
     30 C          15.7977   -1.2262    0.0000 C.3     1  UNL1       -0.0226
     31 C          13.1103    0.5487    0.0000 C.3     1  UNL1       -0.0493
     32 C          16.3782   -2.0332    0.0000 C.3     1  UNL1       -0.0432
     33 C          11.2812   -1.5708    0.0000 C.3     1  UNL1       -0.0448
     34 C          11.2729    0.5847    0.0000 C.3     1  UNL1       -0.0232
     35 C          14.8426   -3.5273    0.0000 C.3     1  UNL1       -0.0564
     36 C          12.2140   -2.0103    0.0000 C.3     1  UNL1       -0.0590
     37 C          10.3353   -1.0392    0.0000 C.3     1  UNL1       -0.0260
     38 C          10.3312    0.0458    0.0000 C.3     1  UNL1        0.0621
     39 C          16.0985   -3.7874    0.0000 C.2     1  UNL1       -0.0222
     40 C          17.0489   -4.0984    0.0000 C.3     1  UNL1        0.1147
     41 C          15.5090   -4.5951    0.0000 C.2     1  UNL1        0.0252
     42 C           8.5991    0.0458    0.0000 C.3     1  UNL1        0.1994
     43 C          16.0950   -5.4054    0.0000 C.2     1  UNL1        0.3323
     44 C           8.5991   -0.9542    0.0000 C.3     1  UNL1        0.1819
     45 C           7.7331   -1.4542    0.0000 C.3     1  UNL1        0.1285
     46 C           6.8671    0.0458    0.0000 C.3     1  UNL1        0.0878
     47 C           6.8671   -0.9542    0.0000 C.3     1  UNL1        0.1173
     48 C           6.0010    0.5458    0.0000 C.3     1  UNL1       -0.0360
     49 C           9.4651   -2.4542    0.0000 C.2     1  UNL1        0.3044
     50 C           5.1350   -0.9542    0.0000 C.3     1  UNL1        0.1884
     51 C           6.8671   -2.9542    0.0000 C.3     1  UNL1        0.0371
     52 C           4.2690   -1.4542    0.0000 C.3     1  UNL1        0.1341
     53 C          10.3312   -2.9542    0.0000 C.3     1  UNL1        0.0332
     54 C           3.4030   -0.9542    0.0000 C.3     1  UNL1        0.1141
     55 C           4.2690    0.5458    0.0000 C.3     1  UNL1        0.1134
     56 C           3.4030    0.0458    0.0000 C.3     1  UNL1        0.1119
     57 C           4.2690    1.5458    0.0000 C.3     1  UNL1        0.0796
     58 C           5.1350    3.0458    0.0000 C.3     1  UNL1        0.1880
     59 C           4.2690    3.5458    0.0000 C.3     1  UNL1        0.1341
     60 C           4.2690    4.5458    0.0000 C.3     1  UNL1        0.1141
     61 C           6.0010    4.5458    0.0000 C.3     1  UNL1        0.1130
     62 C           5.1350    5.0458    0.0000 C.3     1  UNL1        0.1119
     63 C           6.8671    5.0458    0.0000 C.3     1  UNL1        0.0730
     64 H          14.5267   -0.7202    0.0000 H       1  UNL1        0.0331
     65 H          13.6540   -1.8327    0.0000 H       1  UNL1        0.0310
     66 H          12.2110    0.6513    0.0000 H       1  UNL1        0.0307
     67 H          12.5042   -2.4106    0.0000 H       1  UNL1        0.0268
     68 H          12.9001   -3.1024    0.0000 H       1  UNL1        0.0268
     69 H          13.5781   -3.4974    0.0000 H       1  UNL1        0.0272
     70 H          14.3752   -3.5004    0.0000 H       1  UNL1        0.0272
     71 H          16.4036   -2.9342    0.0000 H       1  UNL1        0.0353
     72 H          14.6150   -0.1004    0.0000 H       1  UNL1        0.0269
     73 H          14.2265    0.5970    0.0000 H       1  UNL1        0.0269
     74 H          16.3362   -0.9191    0.0000 H       1  UNL1        0.0293
     75 H          15.5488   -0.6583    0.0000 H       1  UNL1        0.0293
     76 H          13.5130    1.0200    0.0000 H       1  UNL1        0.0268
     77 H          12.7148    1.0262    0.0000 H       1  UNL1        0.0268
     78 H          16.8374   -2.4497    0.0000 H       1  UNL1        0.0272
     79 H          16.8406   -1.6202    0.0000 H       1  UNL1        0.0272
     80 H          10.8894   -2.0513    0.0000 H       1  UNL1        0.0271
     81 H          11.6876   -2.0390    0.0000 H       1  UNL1        0.0271
     82 H          11.6757    1.0560    0.0000 H       1  UNL1        0.0293
     83 H          10.8774    1.0622    0.0000 H       1  UNL1        0.0293
     84 H          14.2226   -3.5249    0.0000 H       1  UNL1        0.0236
     85 H          14.8402   -4.1473    0.0000 H       1  UNL1        0.0236
     86 H          15.4626   -3.5297    0.0000 H       1  UNL1        0.0236
     87 H          11.5941   -2.0126    0.0000 H       1  UNL1        0.0235
     88 H          12.2164   -2.6303    0.0000 H       1  UNL1        0.0235
     89 H          12.8340   -2.0079    0.0000 H       1  UNL1        0.0235
     90 H           9.7241   -0.9354    0.0000 H       1  UNL1        0.0290
     91 H          10.1285   -1.6237    0.0000 H       1  UNL1        0.0290
     92 H           9.7948   -0.2652    0.0000 H       1  UNL1        0.0597
     93 H          15.3923   -0.2194    0.0000 H       1  UNL1        0.2102
     94 H          17.6653   -4.1645    0.0000 H       1  UNL1        0.0746
     95 H          17.1790   -3.4922    0.0000 H       1  UNL1        0.0746
     96 H          14.8890   -4.5938    0.0000 H       1  UNL1        0.0689
     97 H           8.5991    0.6658    0.0000 H       1  UNL1        0.0949
     98 H           8.5991   -1.5742    0.0000 H       1  UNL1        0.0813
     99 H           7.1962   -1.7642    0.0000 H       1  UNL1        0.0662
    100 H           6.8671    0.6658    0.0000 H       1  UNL1        0.0621
    101 H           6.3301   -0.6442    0.0000 H       1  UNL1        0.0650
    102 H           6.3110    1.0827    0.0000 H       1  UNL1        0.0255
    103 H           5.4641    0.8558    0.0000 H       1  UNL1        0.0255
    104 H           5.6910    0.0089    0.0000 H       1  UNL1        0.0255
    105 H           5.1350   -1.5742    0.0000 H       1  UNL1        0.0938
    106 H           6.5571   -2.4173    0.0000 H       1  UNL1        0.0524
    107 H           6.3301   -3.2642    0.0000 H       1  UNL1        0.0524
    108 H           7.1771   -3.4911    0.0000 H       1  UNL1        0.0524
    109 H           3.7320   -1.7642    0.0000 H       1  UNL1        0.0671
    110 H          10.0212   -3.4911    0.0000 H       1  UNL1        0.0342
    111 H          10.8681   -3.2642    0.0000 H       1  UNL1        0.0342
    112 H          10.6412   -2.4173    0.0000 H       1  UNL1        0.0342
    113 H           2.8660   -0.6442    0.0000 H       1  UNL1        0.0648
    114 H           4.8059    0.8558    0.0000 H       1  UNL1        0.0647
    115 H           3.4030    0.6658    0.0000 H       1  UNL1        0.0647
    116 H           3.7320   -2.7642    0.0000 H       1  UNL1        0.2101
    117 H           4.0569    2.1284    0.0000 H       1  UNL1        0.0587
    118 H           3.6584    1.4381    0.0000 H       1  UNL1        0.0587
    119 H           2.0000   -1.1442    0.0000 H       1  UNL1        0.2100
    120 H           2.5369    1.1658    0.0000 H       1  UNL1        0.2100
    121 H           4.5981    2.7358    0.0000 H       1  UNL1        0.0937
    122 H           3.7320    3.8558    0.0000 H       1  UNL1        0.0671
    123 H           4.8059    4.2358    0.0000 H       1  UNL1        0.0648
    124 H           6.5380    4.2358    0.0000 H       1  UNL1        0.0647
    125 H           4.5981    5.3558    0.0000 H       1  UNL1        0.0647
    126 H           7.2656    5.5207    0.0000 H       1  UNL1        0.0584
    127 H           6.4685    5.5207    0.0000 H       1  UNL1        0.0584
    128 H           2.8660    3.3558    0.0000 H       1  UNL1        0.2101
    129 H           3.4030    5.6658    0.0000 H       1  UNL1        0.2100
    130 H           5.6720    6.3558    0.0000 H       1  UNL1        0.2100
    131 H           8.2700    4.8558    0.0000 H       1  UNL1        0.2095
@<TRIPOS>BOND
     1     1    20    1
     2     1    93    1
     3     2    38    1
     4     2    42    1
     5     3    40    1
     6     3    43    1
     7     4    42    1
     8     4    46    1
     9     5    43    2
    10     6    44    1
    11     6    49    1
    12     7    45    1
    13     7    51    1
    14     8    47    1
    15     8    50    1
    16     9    50    1
    17     9    55    1
    18    10    49    2
    19    11    52    1
    20    11   116    1
    21    12    54    1
    22    12   119    1
    23    13    56    1
    24    13   120    1
    25    14    57    1
    26    14    58    1
    27    15    58    1
    28    15    61    1
    29    16    59    1
    30    16   128    1
    31    17    60    1
    32    17   129    1
    33    18    62    1
    34    18   130    1
    35    19    63    1
    36    19   131    1
    37    20    21    1
    38    20    23    1
    39    20    30    1
    40    21    22    1
    41    21    29    1
    42    21    64    1
    43    22    24    1
    44    22    26    1
    45    22    65    1
    46    23    27    1
    47    23    28    1
    48    23    35    1
    49    24    25    1
    50    24    33    1
    51    24    36    1
    52    25    31    1
    53    25    34    1
    54    25    66    1
    55    26    27    1
    56    26    67    1
    57    26    68    1
    58    27    69    1
    59    27    70    1
    60    28    32    1
    61    28    39    1
    62    28    71    1
    63    29    31    1
    64    29    72    1
    65    29    73    1
    66    30    32    1
    67    30    74    1
    68    30    75    1
    69    31    76    1
    70    31    77    1
    71    32    78    1
    72    32    79    1
    73    33    37    1
    74    33    80    1
    75    33    81    1
    76    34    38    1
    77    34    82    1
    78    34    83    1
    79    35    84    1
    80    35    85    1
    81    35    86    1
    82    36    87    1
    83    36    88    1
    84    36    89    1
    85    37    38    1
    86    37    90    1
    87    37    91    1
    88    38    92    1
    89    39    40    1
    90    39    41    2
    91    40    94    1
    92    40    95    1
    93    41    43    1
    94    41    96    1
    95    42    44    1
    96    42    97    1
    97    44    45    1
    98    44    98    1
    99    45    47    1
   100    45    99    1
   101    46    47    1
   102    46    48    1
   103    46   100    1
   104    47   101    1
   105    48   102    1
   106    48   103    1
   107    48   104    1
   108    49    53    1
   109    50    52    1
   110    50   105    1
   111    51   106    1
   112    51   107    1
   113    51   108    1
   114    52    54    1
   115    52   109    1
   116    53   110    1
   117    53   111    1
   118    53   112    1
   119    54    56    1
   120    54   113    1
   121    55    56    1
   122    55    57    1
   123    55   114    1
   124    56   115    1
   125    57   117    1
   126    57   118    1
   127    58    59    1
   128    58   121    1
   129    59    60    1
   130    59   122    1
   131    60    62    1
   132    60   123    1
   133    61    62    1
   134    61    63    1
   135    61   124    1
   136    62   125    1
   137    63   126    1
   138    63   127    1
