@<TRIPOS>MOLECULE
IMPHY002205
 45 50 0 0 0
SMALL
GASTEIGER

@<TRIPOS>ATOM
      1 O           9.3783    1.3933    0.0000 O.3     1  UNL1       -0.3711
      2 O           7.0978   -0.6600    0.0000 O.3     1  UNL1       -0.3408
      3 O           6.1262    0.8270    0.0000 O.3     1  UNL1       -0.4631
      4 O          13.0271    0.2035    0.0000 O.3     1  UNL1       -0.4526
      5 O          13.0271   -1.4060    0.0000 O.3     1  UNL1       -0.4526
      6 O           2.5822    0.6256    0.0000 O.3     1  UNL1       -0.4525
      7 O           2.5850   -0.9839    0.0000 O.3     1  UNL1       -0.4526
      8 C           8.5693   -0.0080    0.0000 C.3     1  UNL1        0.0236
      9 C           7.9001    0.7352    0.0000 C.3     1  UNL1        0.0525
     10 C           9.4828    0.3988    0.0000 C.3     1  UNL1        0.0892
     11 C           6.9931    0.3285    0.0000 C.3     1  UNL1        0.2070
     12 C           8.4001    1.6012    0.0000 C.3     1  UNL1        0.0574
     13 C           8.0700   -0.8676    0.0000 C.3     1  UNL1        0.0577
     14 C          10.3488   -0.1012    0.0000 C.ar    1  UNL1       -0.0149
     15 C          11.2149    0.3988    0.0000 C.ar    1  UNL1       -0.0105
     16 C          10.3488   -1.1012    0.0000 C.ar    1  UNL1       -0.0524
     17 C           5.2610    0.3255    0.0000 C.ar    1  UNL1        0.1276
     18 C          12.0809   -0.1012    0.0000 C.ar    1  UNL1        0.1666
     19 C          11.2149   -1.6012    0.0000 C.ar    1  UNL1       -0.0158
     20 C          12.0809   -1.1012    0.0000 C.ar    1  UNL1        0.1662
     21 C           4.3941    0.8240    0.0000 C.ar    1  UNL1        0.0257
     22 C           5.2627   -0.6745    0.0000 C.ar    1  UNL1       -0.0161
     23 C          13.6107   -0.6012    0.0000 C.3     1  UNL1        0.2332
     24 C           3.5290    0.3225    0.0000 C.ar    1  UNL1        0.1697
     25 C           4.3976   -1.1760    0.0000 C.ar    1  UNL1       -0.0127
     26 C           3.5307   -0.6775    0.0000 C.ar    1  UNL1        0.1665
     27 C           2.0000   -0.1801    0.0000 C.3     1  UNL1        0.2332
     28 H           9.1372   -0.6404    0.0000 H       1  UNL1        0.0357
     29 H           7.3306    1.3661    0.0000 H       1  UNL1        0.0388
     30 H          10.0028    0.7365    0.0000 H       1  UNL1        0.0650
     31 H           7.0242    0.9477    0.0000 H       1  UNL1        0.1059
     32 H           8.5917    2.1909    0.0000 H       1  UNL1        0.0565
     33 H           7.8337    1.8534    0.0000 H       1  UNL1        0.0565
     34 H           7.8776   -1.4569    0.0000 H       1  UNL1        0.0565
     35 H           8.6359   -1.1209    0.0000 H       1  UNL1        0.0565
     36 H          11.2149    1.0188    0.0000 H       1  UNL1        0.0659
     37 H           9.8119   -1.4112    0.0000 H       1  UNL1        0.0622
     38 H          11.2149   -2.2212    0.0000 H       1  UNL1        0.0655
     39 H           4.3930    1.4440    0.0000 H       1  UNL1        0.0692
     40 H           5.8002   -0.9836    0.0000 H       1  UNL1        0.0655
     41 H          14.0716   -1.0159    0.0000 H       1  UNL1        0.1166
     42 H          14.0716   -0.1865    0.0000 H       1  UNL1        0.1166
     43 H           4.3986   -1.7960    0.0000 H       1  UNL1        0.0656
     44 H           1.5384    0.2338    0.0000 H       1  UNL1        0.1166
     45 H           1.5398   -0.5957    0.0000 H       1  UNL1        0.1166
@<TRIPOS>BOND
     1     1    10    1
     2     1    12    1
     3     2    11    1
     4     2    13    1
     5    11     3    1
     6     3    17    1
     7     4    18    1
     8     4    23    1
     9     5    20    1
    10     5    23    1
    11     6    24    1
    12     6    27    1
    13     7    26    1
    14     7    27    1
    15     8     9    1
    16     8    10    1
    17     8    13    1
    18     8    28    1
    19     9    11    1
    20     9    12    1
    21     9    29    1
    22    10    14    1
    23    10    30    1
    24    11    31    1
    25    12    32    1
    26    12    33    1
    27    13    34    1
    28    13    35    1
    29    14    15   ar
    30    14    16   ar
    31    15    18   ar
    32    15    36    1
    33    16    19   ar
    34    16    37    1
    35    17    21   ar
    36    17    22   ar
    37    18    20   ar
    38    19    20   ar
    39    19    38    1
    40    21    24   ar
    41    21    39    1
    42    22    25   ar
    43    22    40    1
    44    23    41    1
    45    23    42    1
    46    24    26   ar
    47    25    26   ar
    48    25    43    1
    49    27    44    1
    50    27    45    1
