@<TRIPOS>MOLECULE
IMPHY017747
 17 19 0 0 0
SMALL
GASTEIGER

@<TRIPOS>ATOM
      1 C           2.3886    0.7191    0.0000 C.3     1  UNL1       -0.0346
      2 C           2.5739   -0.0540    0.0000 C.3     1  UNL1       -0.0346
      3 C           2.0000   -0.4740    0.0000 C.3     1  UNL1       -0.0346
      4 C           4.0843    0.1087    0.0000 C.3     1  UNL1       -0.0402
      5 C           3.3827    0.8524    0.0000 C.3     1  UNL1       -0.0468
      6 C           3.2246   -0.2166    0.0000 C.3     1  UNL1       -0.0468
      7 C           3.3827   -0.8524    0.0000 C.3     1  UNL1       -0.0468
      8 H           1.9917    1.1955    0.0000 H       1  UNL1        0.0306
      9 H           2.6931   -0.6624    0.0000 H       1  UNL1        0.0306
     10 H           1.4542   -0.7682    0.0000 H       1  UNL1        0.0306
     11 H           4.7031    0.1476    0.0000 H       1  UNL1        0.0301
     12 H           3.9117    1.1758    0.0000 H       1  UNL1        0.0271
     13 H           3.1754    1.4368    0.0000 H       1  UNL1        0.0271
     14 H           2.8920   -0.7398    0.0000 H       1  UNL1        0.0271
     15 H           3.1884    0.4023    0.0000 H       1  UNL1        0.0271
     16 H           3.1480   -1.4263    0.0000 H       1  UNL1        0.0271
     17 H           3.9240   -1.1548    0.0000 H       1  UNL1        0.0271
@<TRIPOS>BOND
     1     1     2    1
     2     1     3    1
     3     1     5    1
     4     1     8    1
     5     2     3    1
     6     2     6    1
     7     2     9    1
     8     3     7    1
     9     3    10    1
    10     4     5    1
    11     4     6    1
    12     4     7    1
    13     4    11    1
    14     5    12    1
    15     5    13    1
    16     6    14    1
    17     6    15    1
    18     7    16    1
    19     7    17    1
