@<TRIPOS>MOLECULE
IMPHY000900
 30 29 0 0 0
SMALL
GASTEIGER

@<TRIPOS>ATOM
      1 O           6.0010   -1.0950    0.0000 O.3     1  UNL1       -0.3916
      2 O           2.5369   -0.0950    0.0000 O.3     1  UNL1       -0.4795
      3 OXT         3.4030    1.4050    0.0000 O.2     1  UNL1       -0.2493
      4 N           4.2690   -1.0950    0.0000 N.3     1  UNL1       -0.3183
      5 N           8.5991    0.4050    0.0000 N.pl3   1  UNL1       -0.1137
      6 N          10.3312    0.4050    0.0000 N.pl3   1  UNL1       -0.2893
      7 N           9.4651   -1.0950    0.0000 N.pl3   1  UNL1       -0.2893
      8 C           6.0010   -0.0950    0.0000 C.3     1  UNL1        0.0602
      9 C           5.1350    0.4050    0.0000 C.3     1  UNL1       -0.0011
     10 C           6.8671    0.4050    0.0000 C.3     1  UNL1        0.0075
     11 CA          4.2690   -0.0950    0.0000 C.3     1  UNL1        0.1056
     12 C           7.7331   -0.0950    0.0000 C.3     1  UNL1        0.1070
     13 C           3.4030    0.4050    0.0000 C.2     1  UNL1        0.3218
     14 C           9.4651   -0.0950    0.0000 C.cat   1  UNL1        0.3765
     15 H           6.5380   -0.4050    0.0000 H       1  UNL1        0.0595
     16 H           5.5335    0.8799    0.0000 H       1  UNL1        0.0310
     17 H           4.7365    0.8799    0.0000 H       1  UNL1        0.0310
     18 H           7.2656    0.8799    0.0000 H       1  UNL1        0.0322
     19 H           6.4685    0.8799    0.0000 H       1  UNL1        0.0322
     20 HA          4.8059   -0.4050    0.0000 H       1  UNL1        0.0575
     21 H           7.3346   -0.5699    0.0000 H       1  UNL1        0.0694
     22 H           8.1316   -0.5699    0.0000 H       1  UNL1        0.0694
     23 H           6.5380   -1.4050    0.0000 H       1  UNL1        0.2098
     24 H1          3.7320   -1.4050    0.0000 H       1  UNL1        0.1190
     25 H2          4.8059   -1.4050    0.0000 H       1  UNL1        0.1190
     26 H           2.0000    0.2150    0.0000 H       1  UNL1        0.2951
     27 H          10.8681    0.0950    0.0000 H       1  UNL1        0.2546
     28 H          10.3312    1.0250    0.0000 H       1  UNL1        0.2546
     29 H          10.0021   -1.4050    0.0000 H       1  UNL1        0.2546
     30 H           8.9282   -1.4050    0.0000 H       1  UNL1        0.2546
@<TRIPOS>BOND
     1     8     1    1
     2     1    23    1
     3     2    13    1
     4     2    26    1
     5     3    13    2
     6    11     4    1
     7     4    24    1
     8     4    25    1
     9     5    12    1
    10     5    14    2
    11     6    14    1
    12     6    27    1
    13     6    28    1
    14     7    14    1
    15     7    29    1
    16     7    30    1
    17     8     9    1
    18     8    10    1
    19     8    15    1
    20     9    11    1
    21     9    16    1
    22     9    17    1
    23    10    12    1
    24    10    18    1
    25    10    19    1
    26    11    13    1
    27    11    20    1
    28    12    21    1
    29    12    22    1
