@<TRIPOS>MOLECULE
IMPHY015144
 46 50 0 0 0
SMALL
GASTEIGER

@<TRIPOS>ATOM
      1 C           4.0476   -1.8983    0.0000 C.3     1  UNL1       -0.0274
      2 C           5.0363   -1.7953    0.0000 C.3     1  UNL1       -0.0119
      3 C           3.6425   -0.9905    0.0000 C.3     1  UNL1       -0.0122
      4 C           5.2455   -0.8234    0.0000 C.ar    1  UNL1       -0.0371
      5 C           4.3795   -0.3234    0.0000 C.ar    1  UNL1       -0.0400
      6 C           3.4527   -2.7458    0.0000 C.3     1  UNL1       -0.0491
      7 C           2.6144   -0.8673    0.0000 C.3     1  UNL1       -0.0459
      8 C           5.8614   -2.3388    0.0000 C.3     1  UNL1       -0.0456
      9 C           6.1115   -0.3234    0.0000 C.ar    1  UNL1       -0.0402
     10 C           2.4220   -2.6464    0.0000 C.3     1  UNL1       -0.0528
     11 C           2.0000   -1.7008    0.0000 C.3     1  UNL1       -0.0525
     12 C           6.7585   -1.9247    0.0000 C.3     1  UNL1       -0.0485
     13 C           6.8802   -0.9442    0.0000 C.3     1  UNL1       -0.0271
     14 C           6.1115    0.6766    0.0000 C.ar    1  UNL1       -0.0407
     15 C           4.3795    0.6766    0.0000 C.ar    1  UNL1       -0.0546
     16 C           5.2455    1.1766    0.0000 C.ar    1  UNL1       -0.0436
     17 C           7.0215    1.1834    0.0000 C.3     1  UNL1       -0.0271
     18 C           5.2294    2.2181    0.0000 C.3     1  UNL1       -0.0274
     19 C           7.0296    2.2250    0.0000 C.3     1  UNL1       -0.0487
     20 C           6.1275    2.7458    0.0000 C.3     1  UNL1       -0.0488
     21 H           4.3617   -2.4328    0.0000 H       1  UNL1        0.0312
     22 H           4.8893   -2.3976    0.0000 H       1  UNL1        0.0352
     23 H           3.4544   -0.3997    0.0000 H       1  UNL1        0.0352
     24 H           3.2884   -3.3437    0.0000 H       1  UNL1        0.0268
     25 H           4.0136   -3.0099    0.0000 H       1  UNL1        0.0268
     26 H           2.7924   -0.2734    0.0000 H       1  UNL1        0.0271
     27 H           2.0597   -0.5903    0.0000 H       1  UNL1        0.0271
     28 H           5.4308   -2.7848    0.0000 H       1  UNL1        0.0271
     29 H           6.2205   -2.8442    0.0000 H       1  UNL1        0.0271
     30 H           1.8209   -2.7985    0.0000 H       1  UNL1        0.0265
     31 H           2.4689   -3.2646    0.0000 H       1  UNL1        0.0265
     32 H           1.5712   -1.2530    0.0000 H       1  UNL1        0.0265
     33 H           1.4854   -2.0467    0.0000 H       1  UNL1        0.0265
     34 H           6.9102   -2.5259    0.0000 H       1  UNL1        0.0269
     35 H           7.3773   -1.8864    0.0000 H       1  UNL1        0.0269
     36 H           7.4709   -1.1326    0.0000 H       1  UNL1        0.0313
     37 H           7.1742   -0.3984    0.0000 H       1  UNL1        0.0313
     38 H           3.8425    0.9866    0.0000 H       1  UNL1        0.0623
     39 H           7.2261    0.5981    0.0000 H       1  UNL1        0.0313
     40 H           7.6332    1.2848    0.0000 H       1  UNL1        0.0313
     41 H           5.0114    2.7985    0.0000 H       1  UNL1        0.0313
     42 H           4.6203    2.1026    0.0000 H       1  UNL1        0.0313
     43 H           7.6396    2.1142    0.0000 H       1  UNL1        0.0268
     44 H           7.2431    2.8071    0.0000 H       1  UNL1        0.0268
     45 H           6.5248    3.2218    0.0000 H       1  UNL1        0.0268
     46 H           5.7265    3.2187    0.0000 H       1  UNL1        0.0268
@<TRIPOS>BOND
     1     1     2    1
     2     1     3    1
     3     1     6    1
     4     1    21    1
     5     2     4    1
     6     2     8    1
     7     2    22    1
     8     3     5    1
     9     3     7    1
    10     3    23    1
    11     4     5   ar
    12     4     9   ar
    13     5    15   ar
    14     6    10    1
    15     6    24    1
    16     6    25    1
    17     7    11    1
    18     7    26    1
    19     7    27    1
    20     8    12    1
    21     8    28    1
    22     8    29    1
    23     9    13    1
    24     9    14   ar
    25    10    11    1
    26    10    30    1
    27    10    31    1
    28    11    32    1
    29    11    33    1
    30    12    13    1
    31    12    34    1
    32    12    35    1
    33    13    36    1
    34    13    37    1
    35    14    16   ar
    36    14    17    1
    37    15    16   ar
    38    15    38    1
    39    16    18    1
    40    17    19    1
    41    17    39    1
    42    17    40    1
    43    18    20    1
    44    18    41    1
    45    18    42    1
    46    19    20    1
    47    19    43    1
    48    19    44    1
    49    20    45    1
    50    20    46    1
