@<TRIPOS>MOLECULE
IMPHY016845
 36 37 0 0 0
SMALL
GASTEIGER

@<TRIPOS>ATOM
      1 O           2.8660   -1.2673    0.0000 O.2     1  UNL1       -0.2967
      2 C           5.4641   -0.7673    0.0000 C.3     1  UNL1        0.0178
      3 C           3.7320    0.2327    0.0000 C.3     1  UNL1        0.0385
      4 C           4.5981   -1.2673    0.0000 C.3     1  UNL1        0.0193
      5 C           5.4641    0.2327    0.0000 C.2     1  UNL1       -0.0376
      6 C           2.8660    0.7327    0.0000 C.3     1  UNL1       -0.0337
      7 C           3.7320   -0.7673    0.0000 C.2     1  UNL1        0.1415
      8 C           4.5981    0.7327    0.0000 C.2     1  UNL1       -0.0693
      9 C           5.4641   -1.7673    0.0000 C.3     1  UNL1       -0.0516
     10 C           6.3580   -1.3020    0.0000 C.2     1  UNL1       -0.0734
     11 C           6.3580    0.7674    0.0000 C.2     1  UNL1       -0.0467
     12 C           2.8660    1.7327    0.0000 C.3     1  UNL1       -0.0617
     13 C           2.0000    0.2327    0.0000 C.3     1  UNL1       -0.0617
     14 C           7.2641   -0.7881    0.0000 C.2     1  UNL1       -0.0646
     15 C           7.2641    0.2535    0.0000 C.2     1  UNL1       -0.0588
     16 C           6.3465    1.7673    0.0000 C.3     1  UNL1       -0.0394
     17 H           3.7320    0.8527    0.0000 H       1  UNL1        0.0423
     18 H           4.1996   -1.7422    0.0000 H       1  UNL1        0.0353
     19 H           4.9966   -1.7422    0.0000 H       1  UNL1        0.0353
     20 H           2.8660    0.1127    0.0000 H       1  UNL1        0.0305
     21 H           4.5981    1.3527    0.0000 H       1  UNL1        0.0582
     22 H           4.8441   -1.7673    0.0000 H       1  UNL1        0.0241
     23 H           5.4641   -2.3873    0.0000 H       1  UNL1        0.0241
     24 H           6.0841   -1.7673    0.0000 H       1  UNL1        0.0241
     25 H           6.3509   -1.9219    0.0000 H       1  UNL1        0.0581
     26 H           3.4860    1.7327    0.0000 H       1  UNL1        0.0233
     27 H           2.8660    2.3527    0.0000 H       1  UNL1        0.0233
     28 H           2.2460    1.7327    0.0000 H       1  UNL1        0.0233
     29 H           1.6900    0.7696    0.0000 H       1  UNL1        0.0233
     30 H           1.4631   -0.0773    0.0000 H       1  UNL1        0.0233
     31 H           2.3100   -0.3042    0.0000 H       1  UNL1        0.0233
     32 H           7.7998   -1.1002    0.0000 H       1  UNL1        0.0615
     33 H           7.7998    0.5656    0.0000 H       1  UNL1        0.0620
     34 H           6.9664    1.7745    0.0000 H       1  UNL1        0.0278
     35 H           6.3393    2.3873    0.0000 H       1  UNL1        0.0278
     36 H           5.7265    1.7601    0.0000 H       1  UNL1        0.0278
@<TRIPOS>BOND
     1     1     7    2
     2     2     4    1
     3     2     5    1
     4     2     9    1
     5     2    10    1
     6     3     6    1
     7     3     7    1
     8     3     8    1
     9     3    17    1
    10     4     7    1
    11     4    18    1
    12     4    19    1
    13     5     8    2
    14     5    11    1
    15     6    12    1
    16     6    13    1
    17     6    20    1
    18     8    21    1
    19     9    22    1
    20     9    23    1
    21     9    24    1
    22    10    14    2
    23    10    25    1
    24    11    15    2
    25    11    16    1
    26    12    26    1
    27    12    27    1
    28    12    28    1
    29    13    29    1
    30    13    30    1
    31    13    31    1
    32    14    15    1
    33    14    32    1
    34    15    33    1
    35    16    34    1
    36    16    35    1
    37    16    36    1
