@<TRIPOS>MOLECULE
IMPHY011936
 66 65 0 0 0
SMALL
GASTEIGER

@<TRIPOS>ATOM
      1 O           2.5369    0.4400    0.0000 O.3     1  UNL1       -0.4806
      2 O           3.4030   -1.0600    0.0000 O.2     1  UNL1       -0.2510
      3 C           9.4651    0.4400    0.0000 C.3     1  UNL1       -0.0531
      4 C          10.3312   -0.0600    0.0000 C.3     1  UNL1       -0.0531
      5 C           8.5991   -0.0600    0.0000 C.3     1  UNL1       -0.0531
      6 C          11.1972    0.4400    0.0000 C.3     1  UNL1       -0.0531
      7 C           7.7331    0.4400    0.0000 C.3     1  UNL1       -0.0531
      8 C          12.0632   -0.0600    0.0000 C.3     1  UNL1       -0.0530
      9 C           6.8671   -0.0600    0.0000 C.3     1  UNL1       -0.0530
     10 C          12.9292    0.4400    0.0000 C.3     1  UNL1       -0.0528
     11 C           6.0010    0.4400    0.0000 C.3     1  UNL1       -0.0526
     12 C          13.7953   -0.0600    0.0000 C.3     1  UNL1       -0.0496
     13 C           5.1350   -0.0600    0.0000 C.3     1  UNL1       -0.0430
     14 C          14.6613    0.4400    0.0000 C.3     1  UNL1       -0.0348
     15 C          18.1254    0.4400    0.0000 C.3     1  UNL1       -0.0496
     16 C           4.2690    0.4400    0.0000 C.3     1  UNL1        0.0448
     17 C          18.9914   -0.0600    0.0000 C.3     1  UNL1       -0.0528
     18 C          15.5273   -0.0600    0.0000 C.2     1  UNL1       -0.0879
     19 C          17.2594   -0.0600    0.0000 C.3     1  UNL1       -0.0348
     20 C          19.8574    0.4400    0.0000 C.3     1  UNL1       -0.0533
     21 C          16.3933    0.4400    0.0000 C.2     1  UNL1       -0.0879
     22 C          20.7235   -0.0600    0.0000 C.3     1  UNL1       -0.0559
     23 C           3.4030   -0.0600    0.0000 C.2     1  UNL1        0.3047
     24 C          21.5895    0.4400    0.0000 C.3     1  UNL1       -0.0653
     25 H           9.8637    0.9149    0.0000 H       1  UNL1        0.0265
     26 H           9.0666    0.9149    0.0000 H       1  UNL1        0.0265
     27 H           9.9326   -0.5349    0.0000 H       1  UNL1        0.0265
     28 H          10.7297   -0.5349    0.0000 H       1  UNL1        0.0265
     29 H           8.2006   -0.5349    0.0000 H       1  UNL1        0.0265
     30 H           8.9976   -0.5349    0.0000 H       1  UNL1        0.0265
     31 H          11.5957    0.9149    0.0000 H       1  UNL1        0.0265
     32 H          10.7987    0.9149    0.0000 H       1  UNL1        0.0265
     33 H           8.1316    0.9149    0.0000 H       1  UNL1        0.0265
     34 H           7.3346    0.9149    0.0000 H       1  UNL1        0.0265
     35 H          11.6647   -0.5349    0.0000 H       1  UNL1        0.0265
     36 H          12.4617   -0.5349    0.0000 H       1  UNL1        0.0265
     37 H           6.4685   -0.5349    0.0000 H       1  UNL1        0.0265
     38 H           7.2656   -0.5349    0.0000 H       1  UNL1        0.0265
     39 H          13.3278    0.9149    0.0000 H       1  UNL1        0.0265
     40 H          12.5307    0.9149    0.0000 H       1  UNL1        0.0265
     41 H           6.3996    0.9149    0.0000 H       1  UNL1        0.0265
     42 H           5.6025    0.9149    0.0000 H       1  UNL1        0.0265
     43 H          13.3967   -0.5349    0.0000 H       1  UNL1        0.0268
     44 H          14.1938   -0.5349    0.0000 H       1  UNL1        0.0268
     45 H           4.7365   -0.5349    0.0000 H       1  UNL1        0.0270
     46 H           5.5335   -0.5349    0.0000 H       1  UNL1        0.0270
     47 H          15.0598    0.9149    0.0000 H       1  UNL1        0.0307
     48 H          14.2628    0.9149    0.0000 H       1  UNL1        0.0307
     49 H          18.5239    0.9149    0.0000 H       1  UNL1        0.0268
     50 H          17.7269    0.9149    0.0000 H       1  UNL1        0.0268
     51 H          18.5929   -0.5349    0.0000 H       1  UNL1        0.0265
     52 H          19.3899   -0.5349    0.0000 H       1  UNL1        0.0265
     53 H           4.6675    0.9149    0.0000 H       1  UNL1        0.0377
     54 H           3.8705    0.9149    0.0000 H       1  UNL1        0.0377
     55 H          16.8608   -0.5349    0.0000 H       1  UNL1        0.0307
     56 H          17.6579   -0.5349    0.0000 H       1  UNL1        0.0307
     57 H          15.5273   -0.6800    0.0000 H       1  UNL1        0.0569
     58 H          20.2560    0.9149    0.0000 H       1  UNL1        0.0265
     59 H          19.4589    0.9149    0.0000 H       1  UNL1        0.0265
     60 H          16.3933    1.0600    0.0000 H       1  UNL1        0.0569
     61 H          20.3249   -0.5349    0.0000 H       1  UNL1        0.0263
     62 H          21.1220   -0.5349    0.0000 H       1  UNL1        0.0263
     63 H          21.8995   -0.0969    0.0000 H       1  UNL1        0.0230
     64 H          22.1264    0.7500    0.0000 H       1  UNL1        0.0230
     65 H          21.2795    0.9769    0.0000 H       1  UNL1        0.0230
     66 H           2.0000    0.1300    0.0000 H       1  UNL1        0.2951
@<TRIPOS>BOND
     1     1    23    1
     2     1    66    1
     3     2    23    2
     4     3     4    1
     5     3     5    1
     6     3    25    1
     7     3    26    1
     8     4     6    1
     9     4    27    1
    10     4    28    1
    11     5     7    1
    12     5    29    1
    13     5    30    1
    14     6     8    1
    15     6    31    1
    16     6    32    1
    17     7     9    1
    18     7    33    1
    19     7    34    1
    20     8    10    1
    21     8    35    1
    22     8    36    1
    23     9    11    1
    24     9    37    1
    25     9    38    1
    26    10    12    1
    27    10    39    1
    28    10    40    1
    29    11    13    1
    30    11    41    1
    31    11    42    1
    32    12    14    1
    33    12    43    1
    34    12    44    1
    35    13    16    1
    36    13    45    1
    37    13    46    1
    38    14    18    1
    39    14    47    1
    40    14    48    1
    41    15    17    1
    42    15    19    1
    43    15    49    1
    44    15    50    1
    45    16    23    1
    46    16    53    1
    47    16    54    1
    48    17    20    1
    49    17    51    1
    50    17    52    1
    51    18    21    2
    52    18    57    1
    53    19    21    1
    54    19    55    1
    55    19    56    1
    56    20    22    1
    57    20    58    1
    58    20    59    1
    59    21    60    1
    60    22    24    1
    61    22    61    1
    62    22    62    1
    63    24    63    1
    64    24    64    1
    65    24    65    1
