@<TRIPOS>MOLECULE
IMPHY002988
 30 31 0 0 0
SMALL
GASTEIGER

@<TRIPOS>ATOM
      1 O           4.2690   -2.7500    0.0000 O.3     1  UNL1       -0.4913
      2 O           2.5369    0.2500    0.0000 O.3     1  UNL1       -0.5059
      3 O           6.0010   -1.7500    0.0000 O.3     1  UNL1       -0.5033
      4 O           3.4030    1.7500    0.0000 O.2     1  UNL1       -0.2865
      5 C           4.2690    0.2500    0.0000 C.ar    1  UNL1        0.0673
      6 C           3.4030   -0.2500    0.0000 C.ar    1  UNL1        0.1314
      7 C           4.2690    1.2500    0.0000 C.2     1  UNL1        0.1967
      8 C           5.1350   -0.2500    0.0000 C.ar    1  UNL1       -0.0022
      9 C           5.1350    1.7500    0.0000 C.ar    1  UNL1        0.0224
     10 C           4.2690   -1.7500    0.0000 C.ar    1  UNL1        0.1648
     11 C           5.1350   -1.2500    0.0000 C.ar    1  UNL1        0.1594
     12 C           3.4030   -1.2500    0.0000 C.ar    1  UNL1        0.0259
     13 C           6.0010    1.2500    0.0000 C.ar    1  UNL1       -0.0509
     14 C           5.1350    2.7500    0.0000 C.ar    1  UNL1       -0.0509
     15 C           6.8671    1.7500    0.0000 C.ar    1  UNL1       -0.0611
     16 C           6.0010    3.2500    0.0000 C.ar    1  UNL1       -0.0611
     17 C           6.8671    2.7500    0.0000 C.ar    1  UNL1       -0.0617
     18 C           3.4030   -3.2500    0.0000 C.3     1  UNL1        0.0790
     19 H           5.6720    0.0600    0.0000 H       1  UNL1        0.0663
     20 H           2.8660   -1.5600    0.0000 H       1  UNL1        0.0692
     21 H           6.0010    0.6300    0.0000 H       1  UNL1        0.0625
     22 H           4.5981    3.0600    0.0000 H       1  UNL1        0.0625
     23 H           7.4040    1.4400    0.0000 H       1  UNL1        0.0618
     24 H           6.0010    3.8700    0.0000 H       1  UNL1        0.0618
     25 H           7.4040    3.0600    0.0000 H       1  UNL1        0.0618
     26 H           2.0000   -0.0600    0.0000 H       1  UNL1        0.2922
     27 H           6.0010   -2.3700    0.0000 H       1  UNL1        0.2923
     28 H           3.0930   -2.7131    0.0000 H       1  UNL1        0.0660
     29 H           2.8660   -3.5600    0.0000 H       1  UNL1        0.0660
     30 H           3.7130   -3.7869    0.0000 H       1  UNL1        0.0660
@<TRIPOS>BOND
     1     1    10    1
     2     1    18    1
     3     2     6    1
     4     2    26    1
     5     3    11    1
     6     3    27    1
     7     4     7    2
     8     5     6   ar
     9     5     7    1
    10     5     8   ar
    11     6    12   ar
    12     7     9    1
    13     8    11   ar
    14     8    19    1
    15     9    13   ar
    16     9    14   ar
    17    10    11   ar
    18    10    12   ar
    19    12    20    1
    20    13    15   ar
    21    13    21    1
    22    14    16   ar
    23    14    22    1
    24    15    17   ar
    25    15    23    1
    26    16    17   ar
    27    16    24    1
    28    17    25    1
    29    18    28    1
    30    18    29    1
    31    18    30    1
