@<TRIPOS>MOLECULE
IMPHY012689
 38 42 0 0 0
SMALL
GASTEIGER

@<TRIPOS>ATOM
      1 O           8.6480    2.0466    0.0000 O.2     1  UNL1       -0.2670
      2 N           6.9654    1.4966    0.0000 N.ar    1  UNL1       -0.3059
      3 N           4.5124    0.3792    0.0000 N.ar    1  UNL1       -0.3528
      4 N           9.7248   -0.9308    0.0000 N.ar    1  UNL1       -0.2594
      5 C           5.0091    1.9124    0.0000 C.ar    1  UNL1       -0.0113
      6 C           5.6782    2.6556    0.0000 C.3     1  UNL1       -0.0069
      7 C           5.3181    0.9614    0.0000 C.ar    1  UNL1        0.0674
      8 C           6.6564    2.4477    0.0000 C.3     1  UNL1        0.0308
      9 C           6.2962    0.7535    0.0000 C.ar    1  UNL1        0.0691
     10 C           4.0150    1.9099    0.0000 C.ar    1  UNL1        0.0035
     11 C           3.7086    0.9642    0.0000 C.ar    1  UNL1        0.0472
     12 C           6.6028   -0.2420    0.0000 C.ar    1  UNL1       -0.0281
     13 C           7.9875    1.2958    0.0000 C.ar    1  UNL1        0.2610
     14 C           7.6200   -0.4664    0.0000 C.ar    1  UNL1       -0.0075
     15 C           8.3170    0.3077    0.0000 C.ar    1  UNL1        0.0648
     16 C           3.3334    2.6894    0.0000 C.ar    1  UNL1       -0.0523
     17 C           2.6994    0.7324    0.0000 C.ar    1  UNL1       -0.0378
     18 C           7.9393   -1.5034    0.0000 C.ar    1  UNL1       -0.0327
     19 C           2.3191    2.4810    0.0000 C.ar    1  UNL1       -0.0611
     20 C           9.3816    0.0985    0.0000 C.ar    1  UNL1        0.0407
     21 C           2.0000    1.4960    0.0000 C.ar    1  UNL1       -0.0598
     22 C           8.9988   -1.7371    0.0000 C.ar    1  UNL1        0.0388
     23 C           9.3042   -2.6894    0.0000 C.3     1  UNL1       -0.0223
     24 H           5.9105    3.2304    0.0000 H       1  UNL1        0.0331
     25 H           5.1524    2.9841    0.0000 H       1  UNL1        0.0331
     26 H           7.2703    2.5340    0.0000 H       1  UNL1        0.0496
     27 H           6.6780    3.0673    0.0000 H       1  UNL1        0.0496
     28 H           4.5113   -0.2408    0.0000 H       1  UNL1        0.1660
     29 H           6.1826   -0.6979    0.0000 H       1  UNL1        0.0645
     30 H           3.5313    3.2769    0.0000 H       1  UNL1        0.0624
     31 H           2.5152    0.1404    0.0000 H       1  UNL1        0.0638
     32 H           7.5192   -1.9593    0.0000 H       1  UNL1        0.0641
     33 H           1.9056    2.9430    0.0000 H       1  UNL1        0.0618
     34 H           9.7911    0.5640    0.0000 H       1  UNL1        0.0837
     35 H           1.3942    1.3642    0.0000 H       1  UNL1        0.0618
     36 H           8.7138   -2.8787    0.0000 H       1  UNL1        0.0292
     37 H           9.4935   -3.2798    0.0000 H       1  UNL1        0.0292
     38 H           9.8946   -2.5000    0.0000 H       1  UNL1        0.0292
@<TRIPOS>BOND
     1     1    13    2
     2     2     8    1
     3     2     9   ar
     4     2    13   ar
     5     3     7   ar
     6     3    11   ar
     7     3    28    1
     8     4    20   ar
     9     4    22   ar
    10     5     6    1
    11     5     7   ar
    12     5    10   ar
    13     6     8    1
    14     6    24    1
    15     6    25    1
    16     7     9    1
    17     8    26    1
    18     8    27    1
    19     9    12   ar
    20    10    11   ar
    21    10    16   ar
    22    11    17   ar
    23    12    14   ar
    24    12    29    1
    25    13    15   ar
    26    14    15   ar
    27    14    18   ar
    28    15    20   ar
    29    16    19   ar
    30    16    30    1
    31    17    21   ar
    32    17    31    1
    33    18    22   ar
    34    18    32    1
    35    19    21   ar
    36    19    33    1
    37    20    34    1
    38    21    35    1
    39    22    23    1
    40    23    36    1
    41    23    37    1
    42    23    38    1
