@<TRIPOS>MOLECULE
IMPHY013583
 43 46 0 0 0
SMALL
GASTEIGER

@<TRIPOS>ATOM
      1 O           3.9061   -1.6074    0.0000 O.3     1  UNL1       -0.4857
      2 O           7.4260   -1.6074    0.0000 O.2     1  UNL1       -0.4618
      3 O           5.6660    1.4273    0.0000 O.3     1  UNL1       -0.5055
      4 O           7.4144    1.4619    0.0000 O.2     1  UNL1       -0.2863
      5 O          11.7884    1.9615    0.0000 O.3     1  UNL1       -0.5068
      6 C           3.0000   -1.0935    0.0000 C.3     1  UNL1        0.1054
      7 C           3.0000   -0.0519    0.0000 C.3     1  UNL1       -0.0092
      8 C           3.9061    0.4620    0.0000 C.3     1  UNL1       -0.0171
      9 C           4.8000   -0.0727    0.0000 C.ar    1  UNL1        0.0367
     10 C           4.8000   -1.0727    0.0000 C.ar    1  UNL1        0.1314
     11 C           2.0000   -1.0974    0.0000 C.3     1  UNL1       -0.0252
     12 C           2.5033   -1.9615    0.0000 C.3     1  UNL1       -0.0252
     13 C           5.6660    0.4273    0.0000 C.ar    1  UNL1        0.1379
     14 C           6.5320   -0.0727    0.0000 C.ar    1  UNL1        0.1063
     15 C           5.6660   -1.5727    0.0000 C.ar    1  UNL1        0.0236
     16 C           6.5320   -1.0727    0.0000 C.ar    1  UNL1        0.1454
     17 C           7.4260    0.4620    0.0000 C.ar    1  UNL1        0.2037
     18 C           8.3321   -0.0519    0.0000 C.ar    1  UNL1        0.0644
     19 C           8.3321   -1.0935    0.0000 C.ar    1  UNL1        0.1038
     20 C           9.1962    0.4515    0.0000 C.ar    1  UNL1       -0.0110
     21 C           9.1923    1.4514    0.0000 C.ar    1  UNL1       -0.0504
     22 C          10.0641   -0.0452    0.0000 C.ar    1  UNL1       -0.0504
     23 C          10.0564    1.9548    0.0000 C.ar    1  UNL1       -0.0196
     24 C          10.9282    0.4581    0.0000 C.ar    1  UNL1       -0.0196
     25 C          10.9243    1.4581    0.0000 C.ar    1  UNL1        0.1169
     26 H           2.7909    0.5318    0.0000 H       1  UNL1        0.0307
     27 H           2.3891   -0.1580    0.0000 H       1  UNL1        0.0307
     28 H           4.3107    0.9318    0.0000 H       1  UNL1        0.0317
     29 H           3.5124    0.9410    0.0000 H       1  UNL1        0.0317
     30 H           1.9976   -0.4774    0.0000 H       1  UNL1        0.0268
     31 H           1.3800   -1.0998    0.0000 H       1  UNL1        0.0268
     32 H           2.0024   -1.7174    0.0000 H       1  UNL1        0.0268
     33 H           1.9652   -1.6535    0.0000 H       1  UNL1        0.0268
     34 H           2.1954   -2.4996    0.0000 H       1  UNL1        0.0268
     35 H           3.0415   -2.2694    0.0000 H       1  UNL1        0.0268
     36 H           5.6660   -2.1927    0.0000 H       1  UNL1        0.0691
     37 H           5.1291    1.7373    0.0000 H       1  UNL1        0.2922
     38 H           8.8678   -1.4056    0.0000 H       1  UNL1        0.1037
     39 H           8.6542    1.7594    0.0000 H       1  UNL1        0.0625
     40 H          10.0665   -0.6652    0.0000 H       1  UNL1        0.0625
     41 H          10.0540    2.5748    0.0000 H       1  UNL1        0.0654
     42 H          11.4663    0.1502    0.0000 H       1  UNL1        0.0654
     43 H          12.3266    1.6535    0.0000 H       1  UNL1        0.2921
@<TRIPOS>BOND
     1     1     6    1
     2     1    10    1
     3     2    16   ar
     4     2    19   ar
     5     3    13    1
     6     3    37    1
     7     4    17    2
     8     5    25    1
     9     5    43    1
    10     6     7    1
    11     6    11    1
    12     6    12    1
    13     7     8    1
    14     7    26    1
    15     7    27    1
    16     8     9    1
    17     8    28    1
    18     8    29    1
    19     9    10   ar
    20     9    13   ar
    21    10    15   ar
    22    11    30    1
    23    11    31    1
    24    11    32    1
    25    12    33    1
    26    12    34    1
    27    12    35    1
    28    13    14   ar
    29    14    16   ar
    30    14    17   ar
    31    15    16   ar
    32    15    36    1
    33    17    18   ar
    34    18    19   ar
    35    18    20    1
    36    19    38    1
    37    20    21   ar
    38    20    22   ar
    39    21    23   ar
    40    21    39    1
    41    22    24   ar
    42    22    40    1
    43    23    25   ar
    44    23    41    1
    45    24    25   ar
    46    24    42    1
