@<TRIPOS>MOLECULE
IMPHY010504
 27 29 0 0 0
SMALL
GASTEIGER

@<TRIPOS>ATOM
      1 O           6.8333   -5.0428    0.0000 O.3     1  UNL1       -0.3256
      2 C           5.6822   -5.7096    0.0000 C.3     1  UNL1        0.2720
      3 C           5.6822   -7.0434    0.0000 C.3     1  UNL1        0.2406
      4 C           6.8333   -7.7012    0.0000 C.3     1  UNL1        0.2198
      5 C           7.9844   -7.0434    0.0000 C.3     1  UNL1        0.2144
      6 C           7.9844   -5.7096    0.0000 C.3     1  UNL1        0.1835
      7 O           4.5312   -5.0428    0.0000 O.3     1  UNL1       -0.2935
      8 C           4.5312   -3.7090    0.0000 C.3     1  UNL1        0.2905
      9 O           5.6822   -3.0512    0.0000 O.2     1  UNL1       -0.4497
     10 C           5.6822   -1.7266    0.0000 C.2     1  UNL1        0.1730
     11 C           4.5312   -1.0506    0.0000 C.2     1  UNL1        0.0460
     12 C           3.3801   -1.7266    0.0000 C.3     1  UNL1        0.1816
     13 C           3.3801   -3.0512    0.0000 C.3     1  UNL1        0.1049
     14 C           2.1103   -3.4623    0.0000 C.3     1  UNL1        0.1478
     15 C           1.3246   -2.3843    0.0000 C.3     1  UNL1        0.1408
     16 C           2.1103   -1.3064    0.0000 C.3     1  UNL1        0.2009
     17 O           4.5312   -7.7012    0.0000 O.3     1  UNL1       -0.2149
     18 O           6.8333   -9.0258    0.0000 O.3     1  UNL1       -0.2174
     19 O           9.1354   -7.7012    0.0000 O.3     1  UNL1       -0.2176
     20 C           9.1354   -5.0428    0.0000 C.3     1  UNL1        0.2142
     21 O           9.1354   -3.7090    0.0000 O.3     1  UNL1       -0.2176
     22 O           3.3801   -0.3928    0.0000 O.3     1  UNL1       -0.2184
     23 O           2.1103   -4.7870    0.0000 O.3     1  UNL1       -0.2243
     24 C           0.9592   -4.1201    0.0000 C.3     1  UNL1        0.0343
     25 CL          0.0000   -2.3843    0.0000 Cl      1  UNL1       -0.1096
     26 O           1.8454    0.0000    0.0000 O.3     1  UNL1       -0.2187
     27 H           3.3801   -4.3850    0.0000 H       1  UNL1        0.0431
@<TRIPOS>BOND
     1     1     2    1
     2     1     6    1
     3     2     7    1
     4     2     3    1
     5     3     4    1
     6     3    17    1
     7     4     5    1
     8     4    18    1
     9     5     6    1
    10     5    19    1
    11     6    20    1
    12     8     7    1
    13     8     9    1
    14     8    13    1
    15     9    10    1
    16    10    11    2
    17    11    12    1
    18    12    16    1
    19    12    13    1
    20    12    22    1
    21    13    14    1
    22    13    27    1
    23    14    15    1
    24    14    23    1
    25    14    24    1
    26    15    16    1
    27    15    25    1
    28    16    26    1
    29    20    21    1
