@<TRIPOS>MOLECULE
IMPHY000975
 41 42 0 0 0
SMALL
GASTEIGER

@<TRIPOS>ATOM
      1 O           2.3100    0.2579    0.0000 O.3     1  UNL1       -0.3918
      2 O           4.8100   -2.3402    0.0000 O.2     1  UNL1       -0.3007
      3 C           5.3100    0.2579    0.0000 C.3     1  UNL1       -0.0167
      4 C           4.8100    1.1239    0.0000 C.3     1  UNL1       -0.0352
      5 C           5.8978    1.0669    0.0000 C.3     1  UNL1       -0.0400
      6 C           4.8100   -0.6081    0.0000 C.3     1  UNL1        0.0227
      7 C           5.8978   -0.5511    0.0000 C.3     1  UNL1       -0.0459
      8 C           6.8488    0.7579    0.0000 C.3     1  UNL1       -0.0199
      9 C           6.8488   -0.2421    0.0000 C.3     1  UNL1       -0.0460
     10 C           3.8100    1.1239    0.0000 C.3     1  UNL1       -0.0237
     11 C           3.8100   -0.6081    0.0000 C.3     1  UNL1       -0.0171
     12 C           3.3100    0.2579    0.0000 C.3     1  UNL1        0.0562
     13 C           5.3100    1.9899    0.0000 C.3     1  UNL1       -0.0618
     14 C           7.6579    1.3457    0.0000 C.2     1  UNL1       -0.0766
     15 C           5.3100   -1.4742    0.0000 C.2     1  UNL1        0.1240
     16 C           8.5714    0.9389    0.0000 C.3     1  UNL1       -0.0438
     17 C           7.5533    2.3402    0.0000 C.2     1  UNL1       -0.0994
     18 H           5.4300    1.1239    0.0000 H       1  UNL1        0.0304
     19 H           6.1500    1.6333    0.0000 H       1  UNL1        0.0277
     20 H           5.3608    1.3769    0.0000 H       1  UNL1        0.0277
     21 H           5.4300   -0.6081    0.0000 H       1  UNL1        0.0381
     22 H           5.3608   -0.8611    0.0000 H       1  UNL1        0.0271
     23 H           6.1500   -1.1175    0.0000 H       1  UNL1        0.0271
     24 H           6.7518    1.3702    0.0000 H       1  UNL1        0.0346
     25 H           6.9778   -0.8486    0.0000 H       1  UNL1        0.0271
     26 H           7.4654   -0.1773    0.0000 H       1  UNL1        0.0271
     27 H           3.9177    1.7345    0.0000 H       1  UNL1        0.0293
     28 H           3.2274    1.3360    0.0000 H       1  UNL1        0.0293
     29 H           3.2274   -0.8202    0.0000 H       1  UNL1        0.0297
     30 H           3.9177   -1.2187    0.0000 H       1  UNL1        0.0297
     31 H           3.0000    0.7948    0.0000 H       1  UNL1        0.0593
     32 H           5.8469    1.6799    0.0000 H       1  UNL1        0.0233
     33 H           5.6200    2.5269    0.0000 H       1  UNL1        0.0233
     34 H           4.7731    2.2999    0.0000 H       1  UNL1        0.0233
     35 H           5.9300   -1.4742    0.0000 H       1  UNL1        0.1029
     36 H           2.0000    0.7948    0.0000 H       1  UNL1        0.2098
     37 H           8.3192    0.3725    0.0000 H       1  UNL1        0.0274
     38 H           9.1378    0.6868    0.0000 H       1  UNL1        0.0274
     39 H           8.8236    1.5053    0.0000 H       1  UNL1        0.0274
     40 H           8.0549    2.7046    0.0000 H       1  UNL1        0.0534
     41 H           6.9869    2.5924    0.0000 H       1  UNL1        0.0534
@<TRIPOS>BOND
     1    12     1    1
     2     1    36    1
     3     2    15    2
     4     3     4    1
     5     3     5    1
     6     3     6    1
     7     3     7    1
     8     4    10    1
     9     4    13    1
    10     4    18    1
    11     5     8    1
    12     5    19    1
    13     5    20    1
    14     6    11    1
    15     6    15    1
    16     6    21    1
    17     7     9    1
    18     7    22    1
    19     7    23    1
    20     8     9    1
    21     8    14    1
    22     8    24    1
    23     9    25    1
    24     9    26    1
    25    10    12    1
    26    10    27    1
    27    10    28    1
    28    11    12    1
    29    11    29    1
    30    11    30    1
    31    12    31    1
    32    13    32    1
    33    13    33    1
    34    13    34    1
    35    14    16    1
    36    14    17    2
    37    15    35    1
    38    16    37    1
    39    16    38    1
    40    16    39    1
    41    17    40    1
    42    17    41    1
