@<TRIPOS>MOLECULE
IMPHY010852
 126 131 0 0 0
SMALL
GASTEIGER

@<TRIPOS>ATOM
      1 O          10.3312   -4.6599    0.0000 O.3     1  UNL1       -0.3449
      2 O          11.1799    4.4130    0.0000 O.3     1  UNL1       -0.3911
      3 O           8.5991   -4.6599    0.0000 O.3     1  UNL1       -0.3405
      4 O          10.3312   -6.6599    0.0000 O.3     1  UNL1       -0.3841
      5 O          10.8162    6.1064    0.0000 O.2     1  UNL1       -0.2943
      6 O           8.5991   -7.6599    0.0000 O.3     1  UNL1       -0.3864
      7 O           8.4970    7.3799    0.0000 O.3     1  UNL1       -0.3816
      8 O           6.8671   -6.6599    0.0000 O.3     1  UNL1       -0.3865
      9 O           6.0010   -5.1599    0.0000 O.3     1  UNL1       -0.3460
     10 O           4.2690   -5.1599    0.0000 O.3     1  UNL1       -0.3405
     11 O           6.0010   -3.1599    0.0000 O.3     1  UNL1       -0.3841
     12 O           4.2690   -2.1599    0.0000 O.3     1  UNL1       -0.3864
     13 O           2.5369   -3.1599    0.0000 O.3     1  UNL1       -0.3865
     14 O           2.5369   -6.1599    0.0000 O.3     1  UNL1       -0.3924
     15 C          11.2284    1.0403    0.0000 C.3     1  UNL1       -0.0196
     16 C          10.3604    1.5369    0.0000 C.3     1  UNL1       -0.0196
     17 C          11.2322    0.0403    0.0000 C.3     1  UNL1       -0.0135
     18 C          10.5659    2.5096    0.0000 C.3     1  UNL1       -0.0299
     19 C          10.3561   -1.5046    0.0000 C.3     1  UNL1       -0.0073
     20 C          10.3681   -0.4630    0.0000 C.2     1  UNL1       -0.0636
     21 C          11.2562   -2.0289    0.0000 C.3     1  UNL1       -0.0244
     22 C          11.9628    1.7102    0.0000 C.3     1  UNL1       -0.0463
     23 C          11.5542    2.6164    0.0000 C.3     1  UNL1       -0.0488
     24 C           9.4963    1.0336    0.0000 C.3     1  UNL1       -0.0283
     25 C          12.1442   -0.4630    0.0000 C.3     1  UNL1       -0.0457
     26 C          12.1562   -1.5046    0.0000 C.3     1  UNL1       -0.0483
     27 C          11.2687   -3.1138    0.0000 C.3     1  UNL1       -0.0049
     28 C          12.0963    0.5436    0.0000 C.3     1  UNL1       -0.0585
     29 C           9.5002    0.0336    0.0000 C.2     1  UNL1       -0.0834
     30 C           9.4062   -2.0289    0.0000 C.3     1  UNL1       -0.0413
     31 C           9.8952    3.2513    0.0000 C.3     1  UNL1       -0.0140
     32 C           9.4925    2.0336    0.0000 C.3     1  UNL1       -0.0585
     33 C          10.3312   -3.6599    0.0000 C.3     1  UNL1        0.0672
     34 C           9.3936   -3.1138    0.0000 C.3     1  UNL1       -0.0252
     35 C           9.4920   -1.0013    0.0000 C.3     1  UNL1       -0.0556
     36 C          12.2687   -3.1061    0.0000 C.3     1  UNL1       -0.0572
     37 C          11.7754   -3.9760    0.0000 C.3     1  UNL1       -0.0572
     38 C          10.2022    4.2030    0.0000 C.3     1  UNL1        0.0648
     39 C           8.9175    3.0413    0.0000 C.3     1  UNL1       -0.0598
     40 C           9.5315    4.9447    0.0000 C.3     1  UNL1        0.0350
     41 C           9.4651   -5.1599    0.0000 C.3     1  UNL1        0.1882
     42 C           9.8385    5.8964    0.0000 C.2     1  UNL1        0.1665
     43 C           9.4651   -6.1599    0.0000 C.3     1  UNL1        0.1341
     44 C           8.5991   -6.6599    0.0000 C.3     1  UNL1        0.1141
     45 C           9.1678    6.6382    0.0000 C.3     1  UNL1        0.1181
     46 C           7.7331   -5.1599    0.0000 C.3     1  UNL1        0.1134
     47 C           7.7331   -6.1599    0.0000 C.3     1  UNL1        0.1119
     48 C           6.8671   -4.6599    0.0000 C.3     1  UNL1        0.0796
     49 C           9.9095    7.3088    0.0000 C.3     1  UNL1       -0.0294
     50 C           8.4260    5.9674    0.0000 C.3     1  UNL1       -0.0294
     51 C           5.1350   -4.6599    0.0000 C.3     1  UNL1        0.1880
     52 C           5.1350   -3.6599    0.0000 C.3     1  UNL1        0.1341
     53 C           4.2690   -3.1599    0.0000 C.3     1  UNL1        0.1141
     54 C           3.4030   -4.6599    0.0000 C.3     1  UNL1        0.1130
     55 C           3.4030   -3.6599    0.0000 C.3     1  UNL1        0.1119
     56 C           2.5369   -5.1599    0.0000 C.3     1  UNL1        0.0730
     57 H          11.9634    0.4738    0.0000 H       1  UNL1        0.0351
     58 H          10.8685    3.3039    0.0000 H       1  UNL1        0.0310
     59 H          11.9955   -2.4482    0.0000 H       1  UNL1        0.0315
     60 H          12.3302    1.2108    0.0000 H       1  UNL1        0.0271
     61 H          12.4981    2.0230    0.0000 H       1  UNL1        0.0271
     62 H          12.1431    2.8105    0.0000 H       1  UNL1        0.0268
     63 H          11.4231    3.2224    0.0000 H       1  UNL1        0.0268
     64 H           9.2820    1.6154    0.0000 H       1  UNL1        0.0313
     65 H           8.8862    0.9236    0.0000 H       1  UNL1        0.0313
     66 H          12.7562   -0.5621    0.0000 H       1  UNL1        0.0271
     67 H          12.3465    0.1230    0.0000 H       1  UNL1        0.0271
     68 H          12.3720   -2.0858    0.0000 H       1  UNL1        0.0269
     69 H          12.7658   -1.3914    0.0000 H       1  UNL1        0.0269
     70 H          11.7884    0.0055    0.0000 H       1  UNL1        0.0235
     71 H          12.6344    0.2357    0.0000 H       1  UNL1        0.0235
     72 H          12.4042    1.0818    0.0000 H       1  UNL1        0.0235
     73 H           8.9644   -0.2785    0.0000 H       1  UNL1        0.0572
     74 H           9.2039   -1.4428    0.0000 H       1  UNL1        0.0274
     75 H           8.7941   -2.1279    0.0000 H       1  UNL1        0.0274
     76 H           9.4793    3.7112    0.0000 H       1  UNL1        0.0326
     77 H           9.8004    2.5717    0.0000 H       1  UNL1        0.0235
     78 H           8.9544    2.3415    0.0000 H       1  UNL1        0.0235
     79 H           9.1846    1.4955    0.0000 H       1  UNL1        0.0235
     80 H          10.8687   -3.9689    0.0000 H       1  UNL1        0.0602
     81 H           8.7840   -3.0007    0.0000 H       1  UNL1        0.0291
     82 H           9.1778   -3.6950    0.0000 H       1  UNL1        0.0291
     83 H           9.8041   -0.4655    0.0000 H       1  UNL1        0.0238
     84 H           8.9563   -0.6892    0.0000 H       1  UNL1        0.0238
     85 H           9.1799   -1.5370    0.0000 H       1  UNL1        0.0238
     86 H          12.2734   -3.7261    0.0000 H       1  UNL1        0.0236
     87 H          12.8887   -3.1013    0.0000 H       1  UNL1        0.0236
     88 H          12.2639   -2.4861    0.0000 H       1  UNL1        0.0236
     89 H          11.2408   -4.2901    0.0000 H       1  UNL1        0.0236
     90 H          12.0895   -4.5105    0.0000 H       1  UNL1        0.0236
     91 H          12.3099   -3.6618    0.0000 H       1  UNL1        0.0236
     92 H          10.4631    5.0120    0.0000 H       1  UNL1        0.0600
     93 H           8.7873    3.6475    0.0000 H       1  UNL1        0.0233
     94 H           8.3113    2.9111    0.0000 H       1  UNL1        0.0233
     95 H           9.0477    2.4351    0.0000 H       1  UNL1        0.0233
     96 H           8.9834    5.2346    0.0000 H       1  UNL1        0.0368
     97 H           9.1508    4.4553    0.0000 H       1  UNL1        0.0368
     98 H          10.2013   -5.5849    0.0000 H       1  UNL1        0.0937
     99 H          11.3702    5.0030    0.0000 H       1  UNL1        0.2098
    100 H           9.4651   -7.0099    0.0000 H       1  UNL1        0.0671
    101 H           7.8630   -7.0849    0.0000 H       1  UNL1        0.0648
    102 H           7.7331   -4.3099    0.0000 H       1  UNL1        0.0647
    103 H           6.9970   -5.7349    0.0000 H       1  UNL1        0.0647
    104 H          10.3312   -7.2799    0.0000 H       1  UNL1        0.2101
    105 H           7.2656   -4.1850    0.0000 H       1  UNL1        0.0587
    106 H           6.4685   -4.1850    0.0000 H       1  UNL1        0.0587
    107 H           8.0102    6.4273    0.0000 H       1  UNL1        0.0261
    108 H           7.9662    5.5516    0.0000 H       1  UNL1        0.0261
    109 H          10.3253    6.8490    0.0000 H       1  UNL1        0.0261
    110 H          10.3693    7.7247    0.0000 H       1  UNL1        0.0261
    111 H           9.4936    7.7687    0.0000 H       1  UNL1        0.0261
    112 H           8.8419    5.5076    0.0000 H       1  UNL1        0.0261
    113 H           8.0622   -7.9699    0.0000 H       1  UNL1        0.2100
    114 H           8.6874    7.9699    0.0000 H       1  UNL1        0.2107
    115 H           6.8671   -7.2799    0.0000 H       1  UNL1        0.2100
    116 H           5.1350   -5.5099    0.0000 H       1  UNL1        0.0937
    117 H           5.1350   -2.8099    0.0000 H       1  UNL1        0.0671
    118 H           3.5329   -2.7349    0.0000 H       1  UNL1        0.0648
    119 H           3.4030   -5.5099    0.0000 H       1  UNL1        0.0647
    120 H           4.1391   -4.0849    0.0000 H       1  UNL1        0.0647
    121 H           6.0010   -2.5399    0.0000 H       1  UNL1        0.2101
    122 H           2.3249   -4.5773    0.0000 H       1  UNL1        0.0584
    123 H           1.9264   -5.2676    0.0000 H       1  UNL1        0.0584
    124 H           3.7320   -1.8499    0.0000 H       1  UNL1        0.2100
    125 H           2.0000   -3.4699    0.0000 H       1  UNL1        0.2100
    126 H           2.0000   -6.4699    0.0000 H       1  UNL1        0.2095
@<TRIPOS>BOND
     1    33     1    1
     2     1    41    1
     3     2    38    1
     4     2    99    1
     5     3    41    1
     6     3    46    1
     7     4    43    1
     8     4   104    1
     9     5    42    2
    10     6    44    1
    11     6   113    1
    12     7    45    1
    13     7   114    1
    14     8    47    1
    15     8   115    1
    16     9    48    1
    17     9    51    1
    18    10    51    1
    19    10    54    1
    20    11    52    1
    21    11   121    1
    22    12    53    1
    23    12   124    1
    24    13    55    1
    25    13   125    1
    26    14    56    1
    27    14   126    1
    28    15    16    1
    29    15    17    1
    30    15    22    1
    31    15    28    1
    32    16    18    1
    33    16    24    1
    34    16    32    1
    35    17    20    1
    36    17    25    1
    37    17    57    1
    38    18    23    1
    39    18    31    1
    40    18    58    1
    41    19    20    1
    42    19    21    1
    43    19    30    1
    44    19    35    1
    45    20    29    2
    46    21    26    1
    47    21    27    1
    48    21    59    1
    49    22    23    1
    50    22    60    1
    51    22    61    1
    52    23    62    1
    53    23    63    1
    54    24    29    1
    55    24    64    1
    56    24    65    1
    57    25    26    1
    58    25    66    1
    59    25    67    1
    60    26    68    1
    61    26    69    1
    62    27    33    1
    63    27    36    1
    64    27    37    1
    65    28    70    1
    66    28    71    1
    67    28    72    1
    68    29    73    1
    69    30    34    1
    70    30    74    1
    71    30    75    1
    72    31    38    1
    73    31    39    1
    74    31    76    1
    75    32    77    1
    76    32    78    1
    77    32    79    1
    78    33    34    1
    79    33    80    1
    80    34    81    1
    81    34    82    1
    82    35    83    1
    83    35    84    1
    84    35    85    1
    85    36    86    1
    86    36    87    1
    87    36    88    1
    88    37    89    1
    89    37    90    1
    90    37    91    1
    91    38    40    1
    92    38    92    1
    93    39    93    1
    94    39    94    1
    95    39    95    1
    96    40    42    1
    97    40    96    1
    98    40    97    1
    99    41    43    1
   100    41    98    1
   101    42    45    1
   102    43    44    1
   103    43   100    1
   104    44    47    1
   105    44   101    1
   106    45    49    1
   107    45    50    1
   108    46    47    1
   109    46    48    1
   110    46   102    1
   111    47   103    1
   112    48   105    1
   113    48   106    1
   114    49   109    1
   115    49   110    1
   116    49   111    1
   117    50   107    1
   118    50   108    1
   119    50   112    1
   120    51    52    1
   121    51   116    1
   122    52    53    1
   123    52   117    1
   124    53    55    1
   125    53   118    1
   126    54    55    1
   127    54    56    1
   128    54   119    1
   129    55   120    1
   130    56   122    1
   131    56   123    1
