@<TRIPOS>MOLECULE
IMPHY007208
 38 43 0 0 0
SMALL
GASTEIGER

@<TRIPOS>ATOM
      1 O           4.6393   -1.6993    0.0000 O.3     1  UNL1       -0.4520
      2 O           6.0846   -2.5487    0.0000 O.3     1  UNL1       -0.4526
      3 O           3.4583   -1.0174    0.0000 O.3     1  UNL1       -0.4520
      4 O           2.0000   -0.1904    0.0000 O.3     1  UNL1       -0.4526
      5 N           7.1526    2.0281    0.0000 N.3     1  UNL1       -0.3087
      6 C           6.2944    1.5312    0.0000 C.3     1  UNL1        0.0378
      7 C           6.2944    0.5312    0.0000 C.ar    1  UNL1       -0.0154
      8 C           5.4284    2.0312    0.0000 C.3     1  UNL1       -0.0074
      9 C           5.4284    0.0312    0.0000 C.ar    1  UNL1        0.0364
     10 C           7.2044    0.0243    0.0000 C.ar    1  UNL1       -0.0372
     11 C           4.5623    0.5312    0.0000 C.ar    1  UNL1        0.0348
     12 C           4.5623    1.5312    0.0000 C.ar    1  UNL1       -0.0340
     13 C           8.0437    0.5525    0.0000 C.3     1  UNL1       -0.0146
     14 C           8.0181    1.5439    0.0000 C.3     1  UNL1        0.0004
     15 C           5.4123   -1.0104    0.0000 C.ar    1  UNL1        0.1743
     16 C           7.2124   -1.0173    0.0000 C.ar    1  UNL1       -0.0126
     17 C           6.3103   -1.5381    0.0000 C.ar    1  UNL1        0.1671
     18 C           3.6684   -0.0035    0.0000 C.ar    1  UNL1        0.1743
     19 C           3.6684    2.0658    0.0000 C.ar    1  UNL1       -0.0542
     20 C           2.7623    0.5103    0.0000 C.ar    1  UNL1        0.1669
     21 C           2.7623    1.5520    0.0000 C.ar    1  UNL1       -0.0158
     22 C           5.0539   -2.6481    0.0000 C.3     1  UNL1        0.2333
     23 C           2.4293   -1.1327    0.0000 C.3     1  UNL1        0.2333
     24 H           6.2938    2.3812    0.0000 H       1  UNL1        0.0513
     25 H           5.8269    2.5061    0.0000 H       1  UNL1        0.0332
     26 H           5.0298    2.5061    0.0000 H       1  UNL1        0.0332
     27 H           8.2754   -0.0225    0.0000 H       1  UNL1        0.0326
     28 H           8.6508    0.6784    0.0000 H       1  UNL1        0.0326
     29 H           7.1480    2.6481    0.0000 H       1  UNL1        0.1225
     30 H           8.6308    1.4495    0.0000 H       1  UNL1        0.0427
     31 H           8.2198    2.1302    0.0000 H       1  UNL1        0.0427
     32 H           7.7505   -1.3252    0.0000 H       1  UNL1        0.0658
     33 H           3.6756    2.6858    0.0000 H       1  UNL1        0.0622
     34 H           2.2266    1.8640    0.0000 H       1  UNL1        0.0655
     35 H           4.4629   -2.8353    0.0000 H       1  UNL1        0.1166
     36 H           5.1780   -3.2555    0.0000 H       1  UNL1        0.1166
     37 H           1.8412   -1.3290    0.0000 H       1  UNL1        0.1166
     38 H           2.5627   -1.7382    0.0000 H       1  UNL1        0.1166
@<TRIPOS>BOND
     1     1    15    1
     2     1    22    1
     3     2    17    1
     4     2    22    1
     5     3    18    1
     6     3    23    1
     7     4    20    1
     8     4    23    1
     9     5     6    1
    10     5    14    1
    11     5    29    1
    12     6     7    1
    13     6     8    1
    14     6    24    1
    15     7     9   ar
    16     7    10   ar
    17     8    12    1
    18     8    25    1
    19     8    26    1
    20     9    11    1
    21     9    15   ar
    22    10    13    1
    23    10    16   ar
    24    11    12   ar
    25    11    18   ar
    26    12    19   ar
    27    13    14    1
    28    13    27    1
    29    13    28    1
    30    14    30    1
    31    14    31    1
    32    15    17   ar
    33    16    17   ar
    34    16    32    1
    35    18    20   ar
    36    19    21   ar
    37    19    33    1
    38    20    21   ar
    39    21    34    1
    40    22    35    1
    41    22    36    1
    42    23    37    1
    43    23    38    1
