@<TRIPOS>MOLECULE
IMPHY013859
 23 24 0 0 0
SMALL
GASTEIGER

@<TRIPOS>ATOM
      1 O           5.5321    0.1581    0.0000 O.3     1  UNL1       -0.4577
      2 O           2.9176   -1.3765    0.0000 O.3     1  UNL1       -0.5059
      3 O           4.6660   -1.3419    0.0000 O.2     1  UNL1       -0.2448
      4 C           4.6660    1.6581    0.0000 C.3     1  UNL1        0.0102
      5 C           5.5321    1.1581    0.0000 C.3     1  UNL1        0.1046
      6 C           3.8000    1.1581    0.0000 C.ar    1  UNL1       -0.0264
      7 C           3.8000    0.1581    0.0000 C.ar    1  UNL1        0.1035
      8 C           6.3981    1.6581    0.0000 C.3     1  UNL1       -0.0274
      9 C           4.6660   -0.3419    0.0000 C.2     1  UNL1        0.3433
     10 C           2.9061    1.6927    0.0000 C.ar    1  UNL1       -0.0574
     11 C           2.9061   -0.3766    0.0000 C.ar    1  UNL1        0.1311
     12 C           2.0000    1.1789    0.0000 C.ar    1  UNL1       -0.0580
     13 C           2.0000    0.1372    0.0000 C.ar    1  UNL1       -0.0193
     14 H           5.0646    2.1330    0.0000 H       1  UNL1        0.0349
     15 H           4.2675    2.1330    0.0000 H       1  UNL1        0.0349
     16 H           6.0690    0.8481    0.0000 H       1  UNL1        0.0734
     17 H           6.7081    1.1211    0.0000 H       1  UNL1        0.0265
     18 H           6.9350    1.9681    0.0000 H       1  UNL1        0.0265
     19 H           6.0881    2.1950    0.0000 H       1  UNL1        0.0265
     20 H           2.9132    2.3127    0.0000 H       1  UNL1        0.0621
     21 H           1.4643    1.4909    0.0000 H       1  UNL1        0.0619
     22 H           1.4643   -0.1748    0.0000 H       1  UNL1        0.0654
     23 H           2.3843   -1.6927    0.0000 H       1  UNL1        0.2922
@<TRIPOS>BOND
     1     1     5    1
     2     1     9    1
     3     2    11    1
     4     2    23    1
     5     3     9    2
     6     4     5    1
     7     4     6    1
     8     4    14    1
     9     4    15    1
    10     5     8    1
    11     5    16    1
    12     6     7   ar
    13     6    10   ar
    14     7     9    1
    15     7    11   ar
    16     8    17    1
    17     8    18    1
    18     8    19    1
    19    10    12   ar
    20    10    20    1
    21    11    13   ar
    22    12    13   ar
    23    12    21    1
    24    13    22    1
