@<TRIPOS>MOLECULE
IMPHY013018
 44 46 0 0 0
SMALL
GASTEIGER

@<TRIPOS>ATOM
      1 O           7.1962   -0.0000    0.0000 O.3     1  UNL1       -0.3612
      2 O           3.7320   -2.0000    0.0000 O.3     1  UNL1       -0.3819
      3 O           5.4641   -3.0000    0.0000 O.2     1  UNL1       -0.2727
      4 N           6.3301   -1.5000    0.0000 N.am    1  UNL1       -0.2761
      5 C           5.4641   -0.0000    0.0000 C.3     1  UNL1        0.0368
      6 C           4.5981   -0.5000    0.0000 C.3     1  UNL1        0.0294
      7 C           6.3301   -0.5000    0.0000 C.3     1  UNL1        0.1339
      8 C           4.5981   -1.5000    0.0000 C.3     1  UNL1        0.1385
      9 C           5.4641    1.0000    0.0000 C.ar    1  UNL1       -0.0395
     10 C           5.4641   -2.0000    0.0000 C.2     1  UNL1        0.2465
     11 C           3.7320    0.0000    0.0000 C.ar    1  UNL1       -0.0406
     12 C           7.1962   -2.0000    0.0000 C.3     1  UNL1        0.0056
     13 C           6.3301    1.5000    0.0000 C.ar    1  UNL1       -0.0581
     14 C           4.5981    1.5000    0.0000 C.ar    1  UNL1       -0.0581
     15 C           3.7320    1.0000    0.0000 C.ar    1  UNL1       -0.0582
     16 C           2.8660   -0.5000    0.0000 C.ar    1  UNL1       -0.0582
     17 C           8.0622   -0.5000    0.0000 C.3     1  UNL1        0.0388
     18 C           6.3301    2.5000    0.0000 C.ar    1  UNL1       -0.0615
     19 C           4.5981    2.5000    0.0000 C.ar    1  UNL1       -0.0615
     20 C           2.8660    1.5000    0.0000 C.ar    1  UNL1       -0.0615
     21 C           2.0000    0.0000    0.0000 C.ar    1  UNL1       -0.0615
     22 C           5.4641    3.0000    0.0000 C.ar    1  UNL1       -0.0617
     23 C           2.0000    1.0000    0.0000 C.ar    1  UNL1       -0.0617
     24 H           4.9272    0.3100    0.0000 H       1  UNL1        0.0397
     25 H           5.1350   -0.8100    0.0000 H       1  UNL1        0.0386
     26 H           6.3301    0.1200    0.0000 H       1  UNL1        0.0816
     27 H           4.5981   -2.1200    0.0000 H       1  UNL1        0.0697
     28 H           6.8862   -2.5369    0.0000 H       1  UNL1        0.0429
     29 H           7.7331   -2.3100    0.0000 H       1  UNL1        0.0429
     30 H           7.5062   -1.4631    0.0000 H       1  UNL1        0.0429
     31 H           6.8671    1.1900    0.0000 H       1  UNL1        0.0620
     32 H           4.0611    1.1900    0.0000 H       1  UNL1        0.0620
     33 H           4.2690    1.3100    0.0000 H       1  UNL1        0.0620
     34 H           2.8660   -1.1200    0.0000 H       1  UNL1        0.0620
     35 H           3.7320   -2.6200    0.0000 H       1  UNL1        0.2105
     36 H           7.7522   -1.0369    0.0000 H       1  UNL1        0.0524
     37 H           8.5991   -0.8100    0.0000 H       1  UNL1        0.0524
     38 H           8.3722    0.0369    0.0000 H       1  UNL1        0.0524
     39 H           6.8671    2.8100    0.0000 H       1  UNL1        0.0618
     40 H           4.0611    2.8100    0.0000 H       1  UNL1        0.0618
     41 H           2.8660    2.1200    0.0000 H       1  UNL1        0.0618
     42 H           1.4631   -0.3100    0.0000 H       1  UNL1        0.0618
     43 H           5.4641    3.6200    0.0000 H       1  UNL1        0.0618
     44 H           1.4631    1.3100    0.0000 H       1  UNL1        0.0618
@<TRIPOS>BOND
     1     1     7    1
     2     1    17    1
     3     2     8    1
     4     2    35    1
     5     3    10    2
     6     4     7    1
     7     4    10   am
     8     4    12    1
     9     5     6    1
    10     5     7    1
    11     5     9    1
    12     5    24    1
    13     6     8    1
    14     6    11    1
    15     6    25    1
    16     7    26    1
    17     8    10    1
    18     8    27    1
    19     9    13   ar
    20     9    14   ar
    21    11    15   ar
    22    11    16   ar
    23    12    28    1
    24    12    29    1
    25    12    30    1
    26    13    18   ar
    27    13    31    1
    28    14    19   ar
    29    14    32    1
    30    15    20   ar
    31    15    33    1
    32    16    21   ar
    33    16    34    1
    34    17    36    1
    35    17    37    1
    36    17    38    1
    37    18    22   ar
    38    18    39    1
    39    19    22   ar
    40    19    40    1
    41    20    23   ar
    42    20    41    1
    43    21    23   ar
    44    21    42    1
    45    22    43    1
    46    23    44    1
