@<TRIPOS>MOLECULE
IMPHY004790
 24 24 0 0 0
SMALL
GASTEIGER

@<TRIPOS>ATOM
      1 N           5.4641   -1.0000    0.0000 N.2     1  UNL1       -0.2925
      2 C           5.4641    1.0000    0.0000 C.3     1  UNL1       -0.0463
      3 C           4.5981    0.5000    0.0000 C.3     1  UNL1       -0.0147
      4 C           6.3301    0.5000    0.0000 C.3     1  UNL1       -0.0331
      5 C           4.5981   -0.5000    0.0000 C.2     1  UNL1        0.0135
      6 C           6.3301   -0.5000    0.0000 C.3     1  UNL1        0.0396
      7 C           3.7320   -1.0000    0.0000 C.3     1  UNL1       -0.0150
      8 C           2.8660   -0.5000    0.0000 C.3     1  UNL1       -0.0508
      9 C           2.0000   -1.0000    0.0000 C.3     1  UNL1       -0.0649
     10 H           5.8626    1.4750    0.0000 H       1  UNL1        0.0269
     11 H           5.0656    1.4750    0.0000 H       1  UNL1        0.0269
     12 H           4.3860    1.0826    0.0000 H       1  UNL1        0.0325
     13 H           3.9875    0.3923    0.0000 H       1  UNL1        0.0325
     14 H           6.9407    0.3923    0.0000 H       1  UNL1        0.0283
     15 H           6.5422    1.0826    0.0000 H       1  UNL1        0.0283
     16 H           3.3335   -1.4750    0.0000 H       1  UNL1        0.0325
     17 H           4.1306   -1.4750    0.0000 H       1  UNL1        0.0325
     18 H           6.5422   -1.0826    0.0000 H       1  UNL1        0.0508
     19 H           6.9407   -0.3923    0.0000 H       1  UNL1        0.0508
     20 H           3.2646   -0.0251    0.0000 H       1  UNL1        0.0266
     21 H           2.4675   -0.0251    0.0000 H       1  UNL1        0.0266
     22 H           1.6900   -0.4631    0.0000 H       1  UNL1        0.0230
     23 H           1.4631   -1.3100    0.0000 H       1  UNL1        0.0230
     24 H           2.3100   -1.5369    0.0000 H       1  UNL1        0.0230
@<TRIPOS>BOND
     1     1     5    2
     2     1     6    1
     3     2     3    1
     4     2     4    1
     5     2    10    1
     6     2    11    1
     7     3     5    1
     8     3    12    1
     9     3    13    1
    10     4     6    1
    11     4    14    1
    12     4    15    1
    13     5     7    1
    14     6    18    1
    15     6    19    1
    16     7     8    1
    17     7    16    1
    18     7    17    1
    19     8     9    1
    20     8    20    1
    21     8    21    1
    22     9    22    1
    23     9    23    1
    24     9    24    1
