@<TRIPOS>MOLECULE
IMPHY005000
 27 29 0 0 0
SMALL
GASTEIGER

@<TRIPOS>ATOM
      1 O           5.3923   -1.7876    0.0000 O.3     1  UNL1       -0.4929
      2 O           7.6255    2.3017    0.0000 O.2     1  UNL1       -0.2940
      3 N           4.5274    1.4834    0.0000 N.ar    1  UNL1       -0.3523
      4 N           7.0547    0.3592    0.0000 N.ar    1  UNL1       -0.2466
      5 C           5.0274   -0.0554    0.0000 C.ar    1  UNL1        0.0527
      6 C           4.0274   -0.0554    0.0000 C.ar    1  UNL1        0.0110
      7 C           5.3364    0.8957    0.0000 C.ar    1  UNL1        0.0799
      8 C           3.7183    0.8957    0.0000 C.ar    1  UNL1        0.0476
      9 C           5.7123   -0.8401    0.0000 C.ar    1  UNL1        0.1478
     10 CA          6.3518    1.1279    0.0000 C.ar    1  UNL1        0.1269
     11 C           3.3424   -0.8401    0.0000 C.ar    1  UNL1       -0.0519
     12 C           2.7029    1.1279    0.0000 C.ar    1  UNL1       -0.0378
     13 C           6.7328   -0.6314    0.0000 C.ar    1  UNL1        0.0707
     14 C           2.3219   -0.6314    0.0000 C.ar    1  UNL1       -0.0611
     15 C           2.0000    0.3592    0.0000 C.ar    1  UNL1       -0.0598
     16 C           6.6498    2.0825    0.0000 C.2     1  UNL1        0.1703
     17 C           6.0528   -2.5384    0.0000 C.3     1  UNL1        0.0789
     18 H           4.5274    2.1034    0.0000 H       1  UNL1        0.1660
     19 H           3.5408   -1.4275    0.0000 H       1  UNL1        0.0624
     20 H           2.5182    1.7197    0.0000 H       1  UNL1        0.0638
     21 H           7.1459   -1.0938    0.0000 H       1  UNL1        0.0867
     22 H           1.9088   -1.0938    0.0000 H       1  UNL1        0.0618
     23 H           1.3940    0.4905    0.0000 H       1  UNL1        0.0618
     24 H           6.2296    2.5384    0.0000 H       1  UNL1        0.1098
     25 H           5.5873   -2.9479    0.0000 H       1  UNL1        0.0660
     26 H           6.4623   -3.0039    0.0000 H       1  UNL1        0.0660
     27 H           6.5183   -2.1289    0.0000 H       1  UNL1        0.0660
@<TRIPOS>BOND
     1     1     9    1
     2     1    17    1
     3     2    16    2
     4     3     7   ar
     5     3     8   ar
     6     3    18    1
     7     4    10   ar
     8     4    13   ar
     9     5     6   ar
    10     5     7   ar
    11     5     9   ar
    12     6     8   ar
    13     6    11   ar
    14     7    10   ar
    15     8    12   ar
    16     9    13   ar
    17    10    16    1
    18    11    14   ar
    19    11    19    1
    20    12    15   ar
    21    12    20    1
    22    13    21    1
    23    14    15   ar
    24    14    22    1
    25    15    23    1
    26    16    24    1
    27    17    25    1
    28    17    26    1
    29    17    27    1
