@<TRIPOS>MOLECULE
IMPHY011080
 40 42 0 0 0
SMALL
GASTEIGER

@<TRIPOS>ATOM
      1 O           6.7220   -2.1446    0.0000 O.3     1  UNL1       -0.3888
      2 C           2.9986    0.1289    0.0000 C.3     1  UNL1       -0.0219
      3 C           5.8153    0.2141    0.0000 C.3     1  UNL1       -0.0250
      4 C           4.6752    1.1712    0.0000 C.3     1  UNL1       -0.0279
      5 C           4.4164    0.2053    0.0000 C.3     1  UNL1       -0.0110
      6 C           5.3659   -0.6746    0.0000 C.3     1  UNL1       -0.0090
      7 C           3.5009   -0.7310    0.0000 C.3     1  UNL1       -0.0465
      8 C           4.4439   -1.0511    0.0000 C.3     1  UNL1       -0.0468
      9 C           4.5967    2.6320    0.0000 C.3     1  UNL1       -0.0309
     10 C           3.1954    1.8230    0.0000 C.2     1  UNL1       -0.0726
     11 C           2.0000    0.0752    0.0000 C.3     1  UNL1       -0.0587
     12 C           6.0440   -1.4096    0.0000 C.3     1  UNL1        0.0636
     13 C           3.6022    2.7365    0.0000 C.2     1  UNL1       -0.0844
     14 C           2.2173    1.6151    0.0000 C.3     1  UNL1       -0.0435
     15 C           5.3090   -2.0877    0.0000 C.3     1  UNL1       -0.0361
     16 C           6.7790   -0.7315    0.0000 C.3     1  UNL1       -0.0361
     17 H           6.6653    0.2195    0.0000 H       1  UNL1        0.0313
     18 H           4.8952    1.9923    0.0000 H       1  UNL1        0.0312
     19 H           4.1964   -0.6157    0.0000 H       1  UNL1        0.0354
     20 H           5.1812   -1.5043    0.0000 H       1  UNL1        0.0331
     21 H           2.8991   -0.8804    0.0000 H       1  UNL1        0.0271
     22 H           3.4749   -1.3504    0.0000 H       1  UNL1        0.0271
     23 H           4.0874   -1.5584    0.0000 H       1  UNL1        0.0269
     24 H           4.8304   -1.5359    0.0000 H       1  UNL1        0.0269
     25 H           5.2167    2.6325    0.0000 H       1  UNL1        0.0310
     26 H           4.6289    3.2512    0.0000 H       1  UNL1        0.0310
     27 H           1.9667    0.6943    0.0000 H       1  UNL1        0.0235
     28 H           1.3809    0.0418    0.0000 H       1  UNL1        0.0235
     29 H           2.0333   -0.5439    0.0000 H       1  UNL1        0.0235
     30 H           3.2922    3.2734    0.0000 H       1  UNL1        0.0572
     31 H           2.0884    2.2215    0.0000 H       1  UNL1        0.0274
     32 H           1.6108    1.4862    0.0000 H       1  UNL1        0.0274
     33 H           2.3462    1.0086    0.0000 H       1  UNL1        0.0274
     34 H           4.8886   -1.6320    0.0000 H       1  UNL1        0.0257
     35 H           4.8533   -2.5081    0.0000 H       1  UNL1        0.0257
     36 H           5.7294   -2.5434    0.0000 H       1  UNL1        0.0257
     37 H           7.1994   -1.1872    0.0000 H       1  UNL1        0.0257
     38 H           7.2346   -0.3111    0.0000 H       1  UNL1        0.0257
     39 H           6.3585   -0.2758    0.0000 H       1  UNL1        0.0257
     40 H           6.5376   -2.7365    0.0000 H       1  UNL1        0.2101
@<TRIPOS>BOND
     1     1    12    1
     2     1    40    1
     3     2     4    1
     4     2     5    1
     5     2     7    1
     6     2    11    1
     7     3     4    1
     8     3     5    1
     9     3     6    1
    10     3    17    1
    11     4     9    1
    12     4    18    1
    13     5    10    1
    14     5    19    1
    15     6     8    1
    16     6    12    1
    17     6    20    1
    18     7     8    1
    19     7    21    1
    20     7    22    1
    21     8    23    1
    22     8    24    1
    23     9    13    1
    24     9    25    1
    25     9    26    1
    26    10    13    2
    27    10    14    1
    28    11    27    1
    29    11    28    1
    30    11    29    1
    31    12    15    1
    32    12    16    1
    33    13    30    1
    34    14    31    1
    35    14    32    1
    36    14    33    1
    37    15    34    1
    38    15    35    1
    39    15    36    1
    40    16    37    1
    41    16    38    1
    42    16    39    1
