@<TRIPOS>MOLECULE
IMPHY016663
 37 39 0 0 0
SMALL
GASTEIGER

@<TRIPOS>ATOM
      1 O           6.4783   -0.8047    0.0000 O.2     1  UNL1       -0.4672
      2 O           2.9176   -2.0346    0.0000 O.2     1  UNL1       -0.2971
      3 C           3.8000    0.5000    0.0000 C.3     1  UNL1       -0.0155
      4 C           3.8000   -0.5000    0.0000 C.3     1  UNL1        0.0302
      5 C           2.9061    1.0347    0.0000 C.3     1  UNL1       -0.0371
      6 C           4.6660    1.0000    0.0000 C.3     1  UNL1       -0.0179
      7 C           2.0000    0.5208    0.0000 C.3     1  UNL1       -0.0432
      8 C           4.6660   -1.0000    0.0000 C.3     1  UNL1        0.0158
      9 C           3.8000    1.5000    0.0000 C.3     1  UNL1       -0.0584
     10 C           2.9061   -1.0347    0.0000 C.2     1  UNL1        0.1374
     11 C           2.0000   -0.5208    0.0000 C.3     1  UNL1        0.0064
     12 C           5.5321    0.5000    0.0000 C.ar    1  UNL1       -0.0030
     13 C           5.5321   -0.5000    0.0000 C.ar    1  UNL1        0.1090
     14 C           2.9176    2.0346    0.0000 C.3     1  UNL1       -0.0619
     15 C           6.4783    0.8047    0.0000 C.ar    1  UNL1       -0.0093
     16 C           7.0619    0.0000    0.0000 C.ar    1  UNL1        0.0952
     17 C           6.7889    1.7552    0.0000 C.3     1  UNL1       -0.0365
     18 H           3.8048   -1.1200    0.0000 H       1  UNL1        0.0387
     19 H           2.3721    1.3498    0.0000 H       1  UNL1        0.0304
     20 H           5.0646    1.4750    0.0000 H       1  UNL1        0.0320
     21 H           4.2675    1.4750    0.0000 H       1  UNL1        0.0320
     22 H           1.7909    1.1045    0.0000 H       1  UNL1        0.0272
     23 H           1.3891    0.4147    0.0000 H       1  UNL1        0.0272
     24 H           4.2675   -1.4750    0.0000 H       1  UNL1        0.0350
     25 H           5.0646   -1.4750    0.0000 H       1  UNL1        0.0350
     26 H           4.4200    1.5000    0.0000 H       1  UNL1        0.0235
     27 H           3.8000    2.1200    0.0000 H       1  UNL1        0.0235
     28 H           3.1800    1.5000    0.0000 H       1  UNL1        0.0235
     29 H           1.3891   -0.4147    0.0000 H       1  UNL1        0.0342
     30 H           1.7909   -1.1045    0.0000 H       1  UNL1        0.0342
     31 H           3.5376    2.0274    0.0000 H       1  UNL1        0.0233
     32 H           2.9248    2.6546    0.0000 H       1  UNL1        0.0233
     33 H           2.2977    2.0418    0.0000 H       1  UNL1        0.0233
     34 H           7.6819   -0.0000    0.0000 H       1  UNL1        0.1032
     35 H           7.3783    1.5626    0.0000 H       1  UNL1        0.0279
     36 H           6.9816    2.3446    0.0000 H       1  UNL1        0.0279
     37 H           6.1996    1.9479    0.0000 H       1  UNL1        0.0279
@<TRIPOS>BOND
     1     1    13   ar
     2     1    16   ar
     3     2    10    2
     4     3     4    1
     5     3     5    1
     6     3     6    1
     7     3     9    1
     8     4     8    1
     9     4    10    1
    10     4    18    1
    11     5     7    1
    12     5    14    1
    13     5    19    1
    14     6    12    1
    15     6    20    1
    16     6    21    1
    17     7    11    1
    18     7    22    1
    19     7    23    1
    20     8    13    1
    21     8    24    1
    22     8    25    1
    23     9    26    1
    24     9    27    1
    25     9    28    1
    26    10    11    1
    27    11    29    1
    28    11    30    1
    29    12    13   ar
    30    12    15   ar
    31    14    31    1
    32    14    32    1
    33    14    33    1
    34    15    16   ar
    35    15    17    1
    36    16    34    1
    37    17    35    1
    38    17    36    1
    39    17    37    1
