@<TRIPOS>MOLECULE
IMPHY001955
 34 36 0 0 0
SMALL
GASTEIGER

@<TRIPOS>ATOM
      1 O           5.6270    2.1688    0.0000 O.3     1  UNL1       -0.4602
      2 O           7.3669    2.5270    0.0000 O.2     1  UNL1       -0.2505
      3 O           2.0000   -1.0039    0.0000 O.2     1  UNL1       -0.2873
      4 C           5.7007    0.5588    0.0000 C.3     1  UNL1        0.0280
      5 C           5.0772    1.3406    0.0000 C.3     1  UNL1        0.1137
      6 C           6.6305    0.9105    0.0000 C.3     1  UNL1        0.0633
      7 C           4.0772    1.3406    0.0000 C.3     1  UNL1        0.0069
      8 C           5.4782   -0.4161    0.0000 C.2     1  UNL1       -0.0686
      9 C           3.4538    0.5588    0.0000 C.2     1  UNL1       -0.0578
     10 C           6.5851    1.9036    0.0000 C.2     1  UNL1        0.3109
     11 C           4.5772   -0.8500    0.0000 C.2     1  UNL1       -0.0148
     12 C           3.6763   -0.4161    0.0000 C.2     1  UNL1        0.0279
     13 C           7.4660    0.3611    0.0000 C.3     1  UNL1       -0.0516
     14 C           4.4413   -1.8347    0.0000 C.2     1  UNL1       -0.0393
     15 C           2.9912   -1.1364    0.0000 C.2     1  UNL1        0.1868
     16 C           2.4788    0.7813    0.0000 C.3     1  UNL1       -0.0427
     17 C           3.4630   -2.0114    0.0000 C.2     1  UNL1       -0.0109
     18 C           5.1629   -2.5270    0.0000 C.3     1  UNL1       -0.0390
     19 H           6.3416    0.0004    0.0000 H       1  UNL1        0.0387
     20 H           4.6754    2.0897    0.0000 H       1  UNL1        0.0743
     21 H           6.5624    0.2943    0.0000 H       1  UNL1        0.0418
     22 H           4.2152    1.9451    0.0000 H       1  UNL1        0.0346
     23 H           3.5186    1.6096    0.0000 H       1  UNL1        0.0346
     24 H           5.9630   -0.8027    0.0000 H       1  UNL1        0.0582
     25 H           7.1254   -0.1570    0.0000 H       1  UNL1        0.0238
     26 H           7.9841    0.0204    0.0000 H       1  UNL1        0.0238
     27 H           7.8067    0.8791    0.0000 H       1  UNL1        0.0238
     28 H           2.6168    1.3858    0.0000 H       1  UNL1        0.0275
     29 H           1.8744    0.9193    0.0000 H       1  UNL1        0.0275
     30 H           2.3409    0.1769    0.0000 H       1  UNL1        0.0275
     31 H           3.1940   -2.5700    0.0000 H       1  UNL1        0.0659
     32 H           4.7336   -2.9744    0.0000 H       1  UNL1        0.0278
     33 H           5.6102   -2.9563    0.0000 H       1  UNL1        0.0278
     34 H           5.5921   -2.0797    0.0000 H       1  UNL1        0.0278
@<TRIPOS>BOND
     1     1     5    1
     2     1    10    1
     3     2    10    2
     4     3    15    2
     5     4     5    1
     6     4     6    1
     7     4     8    1
     8     4    19    1
     9     5     7    1
    10     5    20    1
    11     6    10    1
    12     6    13    1
    13     6    21    1
    14     7     9    1
    15     7    22    1
    16     7    23    1
    17     8    11    2
    18     8    24    1
    19     9    12    2
    20     9    16    1
    21    11    12    1
    22    11    14    1
    23    12    15    1
    24    13    25    1
    25    13    26    1
    26    13    27    1
    27    14    17    2
    28    14    18    1
    29    15    17    1
    30    16    28    1
    31    16    29    1
    32    16    30    1
    33    17    31    1
    34    18    32    1
    35    18    33    1
    36    18    34    1
