@<TRIPOS>MOLECULE
IMPHY000695
 54 57 0 0 0
SMALL
GASTEIGER

@<TRIPOS>ATOM
      1 O           7.7925   -1.7643    0.0000 O.3     1  UNL1       -0.4608
      2 O           5.1804    1.7641    0.0000 O.3     1  UNL1       -0.3840
      3 O           4.3198    1.2673    0.0000 O.2     1  UNL1       -0.2941
      4 O           2.5381    0.2568    0.0000 O.3     1  UNL1       -0.3843
      5 O           6.9464    2.8019    0.0000 O.2     1  UNL1       -0.2944
      6 O           9.5140   -1.7970    0.0000 O.2     1  UNL1       -0.2508
      7 C           6.9343   -0.2673    0.0000 C.3     1  UNL1        0.0154
      8 C           6.0682    0.2327    0.0000 C.3     1  UNL1        0.0134
      9 C           5.2022   -0.2673    0.0000 C.3     1  UNL1        0.0381
     10 C           5.2022   -1.2673    0.0000 C.3     1  UNL1       -0.0225
     11 C           6.9343   -1.2673    0.0000 C.3     1  UNL1        0.1093
     12 C           7.8443    0.2395    0.0000 C.3     1  UNL1       -0.0125
     13 C           6.0682   -1.7673    0.0000 C.3     1  UNL1       -0.0112
     14 C           6.0522    1.2742    0.0000 C.3     1  UNL1        0.1176
     15 C           4.3083   -1.8020    0.0000 C.3     1  UNL1       -0.0373
     16 C           7.8523    1.2811    0.0000 C.3     1  UNL1        0.0212
     17 C           6.9343    0.7327    0.0000 C.3     1  UNL1       -0.0555
     18 C           4.3083    0.2673    0.0000 C.2     1  UNL1        0.1680
     19 C           8.6836   -0.2887    0.0000 C.3     1  UNL1        0.0490
     20 C           5.2022    0.7327    0.0000 C.3     1  UNL1       -0.0521
     21 C           6.9502    1.8019    0.0000 C.2     1  UNL1        0.1649
     22 C           3.4022   -1.2881    0.0000 C.3     1  UNL1       -0.0170
     23 C           3.4022   -0.2465    0.0000 C.3     1  UNL1        0.1138
     24 C           8.6580   -1.2801    0.0000 C.2     1  UNL1        0.3077
     25 C           4.3198   -2.8019    0.0000 C.3     1  UNL1       -0.0620
     26 C           8.7202    1.7778    0.0000 C.3     1  UNL1       -0.0553
     27 H           5.3289    0.6520    0.0000 H       1  UNL1        0.0346
     28 H           5.2088   -2.1173    0.0000 H       1  UNL1        0.0314
     29 H           6.9337   -2.1173    0.0000 H       1  UNL1        0.0739
     30 H           8.5900    0.6475    0.0000 H       1  UNL1        0.0319
     31 H           5.6697   -2.2423    0.0000 H       1  UNL1        0.0304
     32 H           6.4668   -2.2423    0.0000 H       1  UNL1        0.0304
     33 H           5.5195    0.9570    0.0000 H       1  UNL1        0.0676
     34 H           4.8494   -2.1047    0.0000 H       1  UNL1        0.0302
     35 H           8.3874    0.9680    0.0000 H       1  UNL1        0.0378
     36 H           7.5543    0.7327    0.0000 H       1  UNL1        0.0236
     37 H           6.9343    1.3527    0.0000 H       1  UNL1        0.0236
     38 H           6.3143    0.7327    0.0000 H       1  UNL1        0.0236
     39 H           9.2907   -0.4146    0.0000 H       1  UNL1        0.0381
     40 H           8.9154    0.2863    0.0000 H       1  UNL1        0.0381
     41 H           5.8222    0.7327    0.0000 H       1  UNL1        0.0239
     42 H           5.2022    1.3527    0.0000 H       1  UNL1        0.0239
     43 H           4.5822    0.7327    0.0000 H       1  UNL1        0.0239
     44 H           2.7914   -1.1820    0.0000 H       1  UNL1        0.0297
     45 H           3.1932   -1.8718    0.0000 H       1  UNL1        0.0297
     46 H           2.8647   -0.5555    0.0000 H       1  UNL1        0.0673
     47 H           3.6999   -2.8091    0.0000 H       1  UNL1        0.0233
     48 H           4.3270   -3.4219    0.0000 H       1  UNL1        0.0233
     49 H           4.9398   -2.7948    0.0000 H       1  UNL1        0.0233
     50 H           9.0282    1.2396    0.0000 H       1  UNL1        0.0237
     51 H           9.2584    2.0857    0.0000 H       1  UNL1        0.0237
     52 H           8.4123    2.3159    0.0000 H       1  UNL1        0.0237
     53 H           5.1733    2.3841    0.0000 H       1  UNL1        0.2104
     54 H           2.0000   -0.0511    0.0000 H       1  UNL1        0.2104
@<TRIPOS>BOND
     1     1    11    1
     2     1    24    1
     3    14     2    1
     4     2    53    1
     5     3    18    2
     6    23     4    1
     7     4    54    1
     8     5    21    2
     9     6    24    2
    10     7     8    1
    11     7    11    1
    12     7    12    1
    13     7    17    1
    14     8     9    1
    15     8    14    1
    16     8    27    1
    17     9    10    1
    18     9    18    1
    19     9    20    1
    20    10    13    1
    21    10    15    1
    22    10    28    1
    23    11    13    1
    24    11    29    1
    25    12    16    1
    26    12    19    1
    27    12    30    1
    28    13    31    1
    29    13    32    1
    30    14    21    1
    31    14    33    1
    32    15    22    1
    33    15    25    1
    34    15    34    1
    35    16    21    1
    36    16    26    1
    37    16    35    1
    38    17    36    1
    39    17    37    1
    40    17    38    1
    41    18    23    1
    42    19    24    1
    43    19    39    1
    44    19    40    1
    45    20    41    1
    46    20    42    1
    47    20    43    1
    48    22    23    1
    49    22    44    1
    50    22    45    1
    51    23    46    1
    52    25    47    1
    53    25    48    1
    54    25    49    1
    55    26    50    1
    56    26    51    1
    57    26    52    1
