@<TRIPOS>MOLECULE
IMPHY009125
 72 77 0 0 0
SMALL
GASTEIGER

@<TRIPOS>ATOM
      1 O           3.7998   -3.5279    0.0000 O.3     1  UNL1       -0.3554
      2 O           6.4344   -2.0206    0.0000 O.3     1  UNL1       -0.3876
      3 O           7.1381    1.2847    0.0000 O.3     1  UNL1       -0.3850
      4 O           8.8328    0.0964    0.0000 O.3     1  UNL1       -0.3823
      5 O           2.9176    0.0071    0.0000 O.2     1  UNL1       -0.2920
      6 O           2.9176   -4.0621    0.0000 O.2     1  UNL1       -0.2895
      7 O           8.9720    2.4865    0.0000 O.3     1  UNL1       -0.4548
      8 O           9.6914    4.0621    0.0000 O.2     1  UNL1       -0.2453
      9 C           5.5321   -1.5275    0.0000 C.3     1  UNL1       -0.0052
     10 C           6.4421   -1.0206    0.0000 C.3     1  UNL1        0.0774
     11 C           6.4501    0.0210    0.0000 C.3     1  UNL1        0.0285
     12 C           4.6660   -1.0275    0.0000 C.3     1  UNL1       -0.0199
     13 C           3.8000   -1.5275    0.0000 C.3     1  UNL1        0.0719
     14 C           3.8000   -2.5275    0.0000 C.3     1  UNL1        0.1697
     15 C           4.6660   -3.0275    0.0000 C.3     1  UNL1        0.0975
     16 C           7.4381    0.3308    0.0000 C.3     1  UNL1        0.1058
     17 C           5.5321   -2.5275    0.0000 C.3     1  UNL1       -0.0176
     18 C           5.5480    0.5418    0.0000 C.3     1  UNL1       -0.0420
     19 C           4.6500    0.0140    0.0000 C.3     1  UNL1       -0.0482
     20 C           7.4252   -1.3456    0.0000 C.3     1  UNL1       -0.0204
     21 C           8.0396   -0.5121    0.0000 C.3     1  UNL1       -0.0179
     22 C           8.2526    0.9109    0.0000 C.3     1  UNL1        0.1293
     23 C           6.1153    0.9633    0.0000 C.3     1  UNL1       -0.0542
     24 C           3.8000   -0.5275    0.0000 C.3     1  UNL1       -0.0490
     25 C           2.9061   -0.9928    0.0000 C.2     1  UNL1        0.1656
     26 C           2.9061   -3.0621    0.0000 C.2     1  UNL1        0.1913
     27 C           9.0672    1.4910    0.0000 C.3     1  UNL1        0.1380
     28 C           2.0000   -1.5067    0.0000 C.2     1  UNL1       -0.0152
     29 C           2.0000   -2.5483    0.0000 C.2     1  UNL1       -0.0128
     30 C           7.6725    1.7254    0.0000 C.3     1  UNL1       -0.0298
     31 C           9.9768    1.0757    0.0000 C.3     1  UNL1        0.0089
     32 C          10.7914    1.6558    0.0000 C.2     1  UNL1       -0.0594
     33 C           9.7866    3.0666    0.0000 C.2     1  UNL1        0.3352
     34 C          10.6962    2.6513    0.0000 C.2     1  UNL1        0.0326
     35 C          11.7010    1.2405    0.0000 C.3     1  UNL1       -0.0429
     36 C          11.5108    3.2314    0.0000 C.3     1  UNL1       -0.0330
     37 H           6.2649   -1.9581    0.0000 H       1  UNL1        0.0332
     38 H           5.3989   -0.5968    0.0000 H       1  UNL1        0.0315
     39 H           5.0911   -3.7636    0.0000 H       1  UNL1        0.0630
     40 H           5.7441   -3.1101    0.0000 H       1  UNL1        0.0295
     41 H           6.1426   -2.4198    0.0000 H       1  UNL1        0.0295
     42 H           5.9453    1.0178    0.0000 H       1  UNL1        0.0272
     43 H           5.1470    1.0147    0.0000 H       1  UNL1        0.0272
     44 H           4.4319    0.5944    0.0000 H       1  UNL1        0.0269
     45 H           4.0408   -0.1015    0.0000 H       1  UNL1        0.0269
     46 H           7.1698   -1.9106    0.0000 H       1  UNL1        0.0294
     47 H           7.9602   -1.6590    0.0000 H       1  UNL1        0.0294
     48 H           8.4972   -0.9304    0.0000 H       1  UNL1        0.0295
     49 H           8.5036   -0.1010    0.0000 H       1  UNL1        0.0295
     50 H           6.6996    1.1708    0.0000 H       1  UNL1        0.0237
     51 H           5.9078    1.5475    0.0000 H       1  UNL1        0.0237
     52 H           5.5311    0.7557    0.0000 H       1  UNL1        0.0237
     53 H           4.4200   -0.5275    0.0000 H       1  UNL1        0.0240
     54 H           3.8000    0.0925    0.0000 H       1  UNL1        0.0240
     55 H           3.1800   -0.5275    0.0000 H       1  UNL1        0.0240
     56 H           6.9689   -2.3347    0.0000 H       1  UNL1        0.2102
     57 H           6.6154    1.6182    0.0000 H       1  UNL1        0.2103
     58 H           8.2940    1.8441    0.0000 H       1  UNL1        0.0767
     59 H           1.4643   -1.1946    0.0000 H       1  UNL1        0.0654
     60 H           1.4643   -2.8604    0.0000 H       1  UNL1        0.0654
     61 H           8.1775    2.0851    0.0000 H       1  UNL1        0.0259
     62 H           7.3128    2.2304    0.0000 H       1  UNL1        0.0259
     63 H           7.1675    1.3658    0.0000 H       1  UNL1        0.0259
     64 H           9.4500    0.1554    0.0000 H       1  UNL1        0.2104
     65 H           9.6253    0.5650    0.0000 H       1  UNL1        0.0347
     66 H          10.4187    0.6408    0.0000 H       1  UNL1        0.0347
     67 H          11.4435    0.6765    0.0000 H       1  UNL1        0.0275
     68 H          12.2650    0.9829    0.0000 H       1  UNL1        0.0275
     69 H          11.9586    1.8044    0.0000 H       1  UNL1        0.0275
     70 H          11.8704    2.7264    0.0000 H       1  UNL1        0.0280
     71 H          12.0158    3.5911    0.0000 H       1  UNL1        0.0280
     72 H          11.1511    3.7364    0.0000 H       1  UNL1        0.0280
@<TRIPOS>BOND
     1    14     1    1
     2     1    15    1
     3    10     2    1
     4     2    56    1
     5    16     3    1
     6     3    57    1
     7    22     4    1
     8     4    64    1
     9     5    25    2
    10     6    26    2
    11     7    27    1
    12     7    33    1
    13     8    33    2
    14     9    10    1
    15     9    12    1
    16     9    17    1
    17     9    37    1
    18    10    11    1
    19    10    20    1
    20    11    16    1
    21    11    18    1
    22    11    23    1
    23    12    13    1
    24    12    19    1
    25    12    38    1
    26    13    14    1
    27    13    24    1
    28    13    25    1
    29    14    15    1
    30    14    26    1
    31    15    17    1
    32    15    39    1
    33    16    21    1
    34    16    22    1
    35    17    40    1
    36    17    41    1
    37    18    19    1
    38    18    42    1
    39    18    43    1
    40    19    44    1
    41    19    45    1
    42    20    21    1
    43    20    46    1
    44    20    47    1
    45    21    48    1
    46    21    49    1
    47    22    27    1
    48    22    30    1
    49    23    50    1
    50    23    51    1
    51    23    52    1
    52    24    53    1
    53    24    54    1
    54    24    55    1
    55    25    28    1
    56    26    29    1
    57    27    31    1
    58    27    58    1
    59    28    29    2
    60    28    59    1
    61    29    60    1
    62    30    61    1
    63    30    62    1
    64    30    63    1
    65    31    32    1
    66    31    65    1
    67    31    66    1
    68    32    34    2
    69    32    35    1
    70    33    34    1
    71    34    36    1
    72    35    67    1
    73    35    68    1
    74    35    69    1
    75    36    70    1
    76    36    71    1
    77    36    72    1
