@<TRIPOS>MOLECULE
IMPHY016272
 40 42 0 0 0
SMALL
GASTEIGER

@<TRIPOS>ATOM
      1 O           2.7420   -2.2351    0.0000 O.3     1  UNL1       -0.3875
      2 C           3.8839    0.2283    0.0000 C.3     1  UNL1        0.0000
      3 C           3.0749    0.8161    0.0000 C.3     1  UNL1       -0.0193
      4 C           3.3839    1.7672    0.0000 C.3     1  UNL1       -0.0296
      5 C           3.8907    1.5018    0.0000 C.3     1  UNL1       -0.0307
      6 C           4.1379    0.7409    0.0000 C.3     1  UNL1       -0.0376
      7 C           4.6929    0.8161    0.0000 C.3     1  UNL1       -0.0428
      8 C           4.3839    1.7672    0.0000 C.3     1  UNL1       -0.0484
      9 C           2.1169    0.4071    0.0000 C.3     1  UNL1       -0.0439
     10 C           3.7910   -0.8092    0.0000 C.2     1  UNL1       -0.0418
     11 C           2.2658    1.4039    0.0000 C.3     1  UNL1       -0.0585
     12 C           2.0000   -0.6279    0.0000 C.3     1  UNL1       -0.0225
     13 C           2.8427   -1.2402    0.0000 C.3     1  UNL1        0.0766
     14 C           3.7343    2.4894    0.0000 C.3     1  UNL1       -0.0595
     15 C           4.4353    2.3404    0.0000 C.3     1  UNL1       -0.0595
     16 C           4.6067   -1.3876    0.0000 C.2     1  UNL1       -0.0965
     17 H           3.0194    2.2687    0.0000 H       1  UNL1        0.0311
     18 H           4.6017    0.3295    0.0000 H       1  UNL1        0.0279
     19 H           4.6566    1.0805    0.0000 H       1  UNL1        0.0279
     20 H           5.0029    0.2792    0.0000 H       1  UNL1        0.0274
     21 H           5.2593    1.0683    0.0000 H       1  UNL1        0.0274
     22 H           4.9903    1.8960    0.0000 H       1  UNL1        0.0269
     23 H           4.3191    2.3838    0.0000 H       1  UNL1        0.0269
     24 H           1.9746    1.0106    0.0000 H       1  UNL1        0.0272
     25 H           1.4980    0.3703    0.0000 H       1  UNL1        0.0272
     26 H           2.6303    1.9055    0.0000 H       1  UNL1        0.0235
     27 H           1.7642    1.7683    0.0000 H       1  UNL1        0.0235
     28 H           1.9014    0.9023    0.0000 H       1  UNL1        0.0235
     29 H           1.4049   -0.4540    0.0000 H       1  UNL1        0.0293
     30 H           1.7268   -1.1845    0.0000 H       1  UNL1        0.0293
     31 H           3.3464   -1.6017    0.0000 H       1  UNL1        0.0640
     32 H           4.3466    2.5864    0.0000 H       1  UNL1        0.0235
     33 H           3.6373    3.1018    0.0000 H       1  UNL1        0.0235
     34 H           3.1219    2.3925    0.0000 H       1  UNL1        0.0235
     35 H           4.9553    2.0027    0.0000 H       1  UNL1        0.0235
     36 H           4.7730    2.8604    0.0000 H       1  UNL1        0.0235
     37 H           3.9154    2.6781    0.0000 H       1  UNL1        0.0235
     38 H           4.5491   -2.0049    0.0000 H       1  UNL1        0.0535
     39 H           5.1702   -1.1289    0.0000 H       1  UNL1        0.0535
     40 H           2.1766   -2.4894    0.0000 H       1  UNL1        0.2102
@<TRIPOS>BOND
     1     1    13    1
     2     1    40    1
     3     2     3    1
     4     2     6    1
     5     2     7    1
     6     2    10    1
     7     3     4    1
     8     3     9    1
     9     3    11    1
    10     4     5    1
    11     4     8    1
    12     4    17    1
    13     5     6    1
    14     5    14    1
    15     5    15    1
    16     6    18    1
    17     6    19    1
    18     7     8    1
    19     7    20    1
    20     7    21    1
    21     8    22    1
    22     8    23    1
    23     9    12    1
    24     9    24    1
    25     9    25    1
    26    10    13    1
    27    10    16    2
    28    11    26    1
    29    11    27    1
    30    11    28    1
    31    12    13    1
    32    12    29    1
    33    12    30    1
    34    13    31    1
    35    14    32    1
    36    14    33    1
    37    14    34    1
    38    15    35    1
    39    15    36    1
    40    15    37    1
    41    16    38    1
    42    16    39    1
