@<TRIPOS>MOLECULE
IMPHY009691
 73 76 0 0 0
SMALL
GASTEIGER

@<TRIPOS>ATOM
      1 O           9.7082   -1.8219    0.0000 O.3     1  UNL1       -0.3580
      2 O           9.0532    0.8598    0.0000 O.3     1  UNL1       -0.4548
      3 O           5.9670   -1.3855    0.0000 O.2     1  UNL1       -0.4709
      4 O           6.8671   -2.9098    0.0000 O.3     1  UNL1       -0.3095
      5 O           8.5136   -3.4259    0.0000 O.3     1  UNL1       -0.3921
      6 O           5.1350   -2.9098    0.0000 O.3     1  UNL1       -0.3404
      7 O          10.6942    0.3056    0.0000 O.2     1  UNL1       -0.2453
      8 O           6.8671   -4.9098    0.0000 O.3     1  UNL1       -0.3841
      9 O           5.1350   -5.9098    0.0000 O.3     1  UNL1       -0.3864
     10 O           3.4030   -4.9098    0.0000 O.3     1  UNL1       -0.3865
     11 O           2.5369   -3.4098    0.0000 O.3     1  UNL1       -0.3924
     12 O          15.2357    5.6324    0.0000 O.3     1  UNL1       -0.3910
     13 C           8.7145   -1.7055    0.0000 C.3     1  UNL1        0.1316
     14 C           9.3116   -0.9034    0.0000 C.3     1  UNL1        0.1284
     15 C           7.7671   -1.3855    0.0000 C.3     1  UNL1        0.0652
     16 C           7.7787   -0.3856    0.0000 C.3     1  UNL1        0.0312
     17 C           8.7333   -0.0876    0.0000 C.3     1  UNL1        0.1390
     18 C           8.1174   -2.5077    0.0000 C.3     1  UNL1        0.0763
     19 C           6.8671   -1.9098    0.0000 C.3     1  UNL1        0.2097
     20 C           6.8910    0.1594    0.0000 C.2     1  UNL1       -0.0423
     21 C           5.9790   -0.3440    0.0000 C.2     1  UNL1        0.0843
     22 C           6.0010   -3.4098    0.0000 C.3     1  UNL1        0.1918
     23 C          10.0337    1.0564    0.0000 C.2     1  UNL1        0.3349
     24 C           6.0010   -4.4098    0.0000 C.3     1  UNL1        0.1342
     25 C           5.1350   -4.9098    0.0000 C.3     1  UNL1        0.1141
     26 C          10.3537    2.0038    0.0000 C.2     1  UNL1        0.0296
     27 C           4.2690   -3.4098    0.0000 C.3     1  UNL1        0.1130
     28 C           4.2690   -4.4098    0.0000 C.3     1  UNL1        0.1119
     29 C           3.4030   -2.9098    0.0000 C.3     1  UNL1        0.0730
     30 C           9.6932    2.7546    0.0000 C.3     1  UNL1       -0.0332
     31 C          11.3342    2.2004    0.0000 C.2     1  UNL1       -0.0740
     32 C          11.6542    3.1478    0.0000 C.3     1  UNL1       -0.0303
     33 C          12.6347    3.3444    0.0000 C.3     1  UNL1       -0.0285
     34 C          12.9547    4.2918    0.0000 C.2     1  UNL1       -0.0741
     35 C          12.2942    5.0427    0.0000 C.3     1  UNL1       -0.0437
     36 C          13.9352    4.4884    0.0000 C.2     1  UNL1       -0.0600
     37 C          14.2552    5.4358    0.0000 C.3     1  UNL1        0.0626
     38 H          10.0526   -0.4868    0.0000 H       1  UNL1        0.0663
     39 H           7.8527   -2.2312    0.0000 H       1  UNL1        0.0398
     40 H           7.8838    0.4579    0.0000 H       1  UNL1        0.0386
     41 H           9.3467    0.0023    0.0000 H       1  UNL1        0.0767
     42 H           7.6919   -2.0568    0.0000 H       1  UNL1        0.0587
     43 H           7.5995   -2.8484    0.0000 H       1  UNL1        0.0587
     44 H           7.4046   -2.2188    0.0000 H       1  UNL1        0.1060
     45 H           6.9053    0.7792    0.0000 H       1  UNL1        0.0606
     46 H           5.4470   -0.0257    0.0000 H       1  UNL1        0.1021
     47 H           9.1294   -3.4978    0.0000 H       1  UNL1        0.2095
     48 H           6.0010   -2.7898    0.0000 H       1  UNL1        0.0939
     49 H           6.0010   -5.0298    0.0000 H       1  UNL1        0.0671
     50 H           4.5981   -5.2198    0.0000 H       1  UNL1        0.0648
     51 H           4.2690   -2.7898    0.0000 H       1  UNL1        0.0647
     52 H           3.7320   -4.0998    0.0000 H       1  UNL1        0.0647
     53 H           6.8671   -5.5298    0.0000 H       1  UNL1        0.2101
     54 H           3.8015   -2.4349    0.0000 H       1  UNL1        0.0584
     55 H           3.0044   -2.4349    0.0000 H       1  UNL1        0.0584
     56 H          10.1588    3.1642    0.0000 H       1  UNL1        0.0280
     57 H           9.2837    3.2202    0.0000 H       1  UNL1        0.0280
     58 H           9.2277    2.3452    0.0000 H       1  UNL1        0.0280
     59 H          11.7437    1.7349    0.0000 H       1  UNL1        0.0577
     60 H           4.5981   -6.2198    0.0000 H       1  UNL1        0.2100
     61 H           3.4030   -5.5298    0.0000 H       1  UNL1        0.2100
     62 H          11.6397    3.7677    0.0000 H       1  UNL1        0.0311
     63 H          11.0413    3.2412    0.0000 H       1  UNL1        0.0311
     64 H           2.0000   -3.0998    0.0000 H       1  UNL1        0.2095
     65 H          12.6492    2.7246    0.0000 H       1  UNL1        0.0313
     66 H          13.2476    3.2510    0.0000 H       1  UNL1        0.0313
     67 H          12.7597    5.4522    0.0000 H       1  UNL1        0.0274
     68 H          11.8847    5.5082    0.0000 H       1  UNL1        0.0274
     69 H          11.8287    4.6332    0.0000 H       1  UNL1        0.0274
     70 H          14.3447    4.0229    0.0000 H       1  UNL1        0.0594
     71 H          14.2407    6.0557    0.0000 H       1  UNL1        0.0601
     72 H          13.6422    5.5292    0.0000 H       1  UNL1        0.0601
     73 H          15.4341    6.2198    0.0000 H       1  UNL1        0.2098
@<TRIPOS>BOND
     1     1    13    1
     2     1    14    1
     3    17     2    1
     4     2    23    1
     5     3    19    1
     6     3    21    1
     7    19     4    1
     8    22     4    1
     9     5    18    1
    10     5    47    1
    11     6    22    1
    12     6    27    1
    13     7    23    2
    14    24     8    1
    15     8    53    1
    16    25     9    1
    17     9    60    1
    18    28    10    1
    19    10    61    1
    20    11    29    1
    21    11    64    1
    22    12    37    1
    23    12    73    1
    24    13    14    1
    25    13    15    1
    26    13    18    1
    27    14    17    1
    28    14    38    1
    29    15    16    1
    30    15    19    1
    31    15    39    1
    32    16    17    1
    33    16    20    1
    34    16    40    1
    35    17    41    1
    36    18    42    1
    37    18    43    1
    38    19    44    1
    39    20    21    2
    40    20    45    1
    41    21    46    1
    42    22    24    1
    43    22    48    1
    44    23    26    1
    45    24    25    1
    46    24    49    1
    47    25    28    1
    48    25    50    1
    49    26    30    1
    50    26    31    2
    51    27    28    1
    52    27    29    1
    53    27    51    1
    54    28    52    1
    55    29    54    1
    56    29    55    1
    57    30    56    1
    58    30    57    1
    59    30    58    1
    60    31    32    1
    61    31    59    1
    62    32    33    1
    63    32    62    1
    64    32    63    1
    65    33    34    1
    66    33    65    1
    67    33    66    1
    68    34    35    1
    69    34    36    2
    70    35    67    1
    71    35    68    1
    72    35    69    1
    73    36    37    1
    74    36    70    1
    75    37    71    1
    76    37    72    1
