@<TRIPOS>MOLECULE
IMPHY016343
 62 61 0 0 0
SMALL
GASTEIGER

@<TRIPOS>ATOM
      1 C          11.5263   -0.2500    0.0000 C.3     1  UNL1       -0.0313
      2 C          12.3923    0.2500    0.0000 C.3     1  UNL1       -0.0313
      3 C           8.9282    0.2500    0.0000 C.3     1  UNL1       -0.0313
      4 C          14.9904   -0.2500    0.0000 C.3     1  UNL1       -0.0313
      5 C           8.0622   -0.2500    0.0000 C.3     1  UNL1       -0.0313
      6 C          15.8564    0.2500    0.0000 C.3     1  UNL1       -0.0313
      7 C          10.6603    0.2500    0.0000 C.2     1  UNL1       -0.0876
      8 C          13.2583   -0.2500    0.0000 C.2     1  UNL1       -0.0876
      9 C           9.7942   -0.2500    0.0000 C.2     1  UNL1       -0.0876
     10 C          14.1244    0.2500    0.0000 C.2     1  UNL1       -0.0876
     11 C           7.1962    0.2500    0.0000 C.2     1  UNL1       -0.0876
     12 C          16.7224   -0.2500    0.0000 C.2     1  UNL1       -0.0876
     13 C           5.4641    0.2500    0.0000 C.3     1  UNL1       -0.0313
     14 C          18.4545   -0.2500    0.0000 C.3     1  UNL1       -0.0313
     15 C           6.3301   -0.2500    0.0000 C.2     1  UNL1       -0.0876
     16 C          17.5885    0.2500    0.0000 C.2     1  UNL1       -0.0876
     17 C           4.5981   -0.2500    0.0000 C.3     1  UNL1       -0.0313
     18 C          19.3205    0.2500    0.0000 C.3     1  UNL1       -0.0313
     19 C           3.7320    0.2500    0.0000 C.2     1  UNL1       -0.0879
     20 C          20.1865   -0.2500    0.0000 C.2     1  UNL1       -0.0879
     21 C           2.8660   -0.2500    0.0000 C.2     1  UNL1       -0.0910
     22 C          21.0526    0.2500    0.0000 C.2     1  UNL1       -0.0910
     23 C           2.0000    0.2500    0.0000 C.3     1  UNL1       -0.0468
     24 C          21.9186   -0.2500    0.0000 C.3     1  UNL1       -0.0468
     25 H          11.1278   -0.7249    0.0000 H       1  UNL1        0.0310
     26 H          11.9248   -0.7249    0.0000 H       1  UNL1        0.0310
     27 H          12.7908    0.7249    0.0000 H       1  UNL1        0.0310
     28 H          11.9938    0.7249    0.0000 H       1  UNL1        0.0310
     29 H           9.3267    0.7249    0.0000 H       1  UNL1        0.0310
     30 H           8.5297    0.7249    0.0000 H       1  UNL1        0.0310
     31 H          14.5919   -0.7249    0.0000 H       1  UNL1        0.0310
     32 H          15.3889   -0.7249    0.0000 H       1  UNL1        0.0310
     33 H           7.6636   -0.7249    0.0000 H       1  UNL1        0.0310
     34 H           8.4607   -0.7249    0.0000 H       1  UNL1        0.0310
     35 H          16.2549    0.7249    0.0000 H       1  UNL1        0.0310
     36 H          15.4579    0.7249    0.0000 H       1  UNL1        0.0310
     37 H          10.6603    0.8700    0.0000 H       1  UNL1        0.0569
     38 H          13.2583   -0.8700    0.0000 H       1  UNL1        0.0569
     39 H           9.7942   -0.8700    0.0000 H       1  UNL1        0.0569
     40 H          14.1244    0.8700    0.0000 H       1  UNL1        0.0569
     41 H           7.1962    0.8700    0.0000 H       1  UNL1        0.0569
     42 H          16.7224   -0.8700    0.0000 H       1  UNL1        0.0569
     43 H           5.8626    0.7249    0.0000 H       1  UNL1        0.0310
     44 H           5.0656    0.7249    0.0000 H       1  UNL1        0.0310
     45 H          18.0560   -0.7249    0.0000 H       1  UNL1        0.0310
     46 H          18.8530   -0.7249    0.0000 H       1  UNL1        0.0310
     47 H           6.3301   -0.8700    0.0000 H       1  UNL1        0.0569
     48 H          17.5885    0.8700    0.0000 H       1  UNL1        0.0569
     49 H           4.1996   -0.7249    0.0000 H       1  UNL1        0.0310
     50 H           4.9966   -0.7249    0.0000 H       1  UNL1        0.0310
     51 H          19.7190    0.7249    0.0000 H       1  UNL1        0.0310
     52 H          18.9220    0.7249    0.0000 H       1  UNL1        0.0310
     53 H           3.7320    0.8700    0.0000 H       1  UNL1        0.0569
     54 H          20.1865   -0.8700    0.0000 H       1  UNL1        0.0569
     55 H           2.8660   -0.8700    0.0000 H       1  UNL1        0.0566
     56 H          21.0526    0.8700    0.0000 H       1  UNL1        0.0566
     57 H           2.3100    0.7869    0.0000 H       1  UNL1        0.0272
     58 H           1.4631    0.5600    0.0000 H       1  UNL1        0.0272
     59 H           1.6900   -0.2869    0.0000 H       1  UNL1        0.0272
     60 H          21.6086   -0.7869    0.0000 H       1  UNL1        0.0272
     61 H          22.4555   -0.5600    0.0000 H       1  UNL1        0.0272
     62 H          22.2286    0.2869    0.0000 H       1  UNL1        0.0272
@<TRIPOS>BOND
     1     1     2    1
     2     1     7    1
     3     1    25    1
     4     1    26    1
     5     2     8    1
     6     2    27    1
     7     2    28    1
     8     3     5    1
     9     3     9    1
    10     3    29    1
    11     3    30    1
    12     4     6    1
    13     4    10    1
    14     4    31    1
    15     4    32    1
    16     5    11    1
    17     5    33    1
    18     5    34    1
    19     6    12    1
    20     6    35    1
    21     6    36    1
    22     7     9    2
    23     7    37    1
    24     8    10    2
    25     8    38    1
    26     9    39    1
    27    10    40    1
    28    11    15    2
    29    11    41    1
    30    12    16    2
    31    12    42    1
    32    13    15    1
    33    13    17    1
    34    13    43    1
    35    13    44    1
    36    14    16    1
    37    14    18    1
    38    14    45    1
    39    14    46    1
    40    15    47    1
    41    16    48    1
    42    17    19    1
    43    17    49    1
    44    17    50    1
    45    18    20    1
    46    18    51    1
    47    18    52    1
    48    19    21    2
    49    19    53    1
    50    20    22    2
    51    20    54    1
    52    21    23    1
    53    21    55    1
    54    22    24    1
    55    22    56    1
    56    23    57    1
    57    23    58    1
    58    23    59    1
    59    24    60    1
    60    24    61    1
    61    24    62    1
