@<TRIPOS>MOLECULE
IMPHY007796
 39 40 0 0 0
SMALL
GASTEIGER

@<TRIPOS>ATOM
      1 O           2.5369    1.2327    0.0000 O.3     1  UNL1       -0.3888
      2 O           8.6651    0.7569    0.0000 O.2     1  UNL1       -0.2876
      3 C           4.2690    0.2327    0.0000 C.3     1  UNL1       -0.0089
      4 C           6.0010   -0.7673    0.0000 C.3     1  UNL1        0.0080
      5 C           4.2690   -0.7673    0.0000 C.3     1  UNL1       -0.0463
      6 C           5.1350   -1.2673    0.0000 C.3     1  UNL1       -0.0401
      7 C           5.1350    0.7327    0.0000 C.3     1  UNL1       -0.0248
      8 C           6.0010    0.2327    0.0000 C.2     1  UNL1       -0.0530
      9 C           3.4030    0.7327    0.0000 C.3     1  UNL1        0.0636
     10 C           6.0010   -1.7673    0.0000 C.3     1  UNL1       -0.0523
     11 C           6.8950   -1.3020    0.0000 C.2     1  UNL1       -0.0705
     12 C           6.8950    0.7674    0.0000 C.2     1  UNL1       -0.0037
     13 C           2.9030   -0.1333    0.0000 C.3     1  UNL1       -0.0361
     14 C           3.9030    1.5987    0.0000 C.3     1  UNL1       -0.0361
     15 C           7.8010   -0.7881    0.0000 C.2     1  UNL1       -0.0178
     16 C           7.8010    0.2535    0.0000 C.2     1  UNL1        0.1816
     17 C           6.8834    1.7673    0.0000 C.3     1  UNL1       -0.0361
     18 H           3.5329   -0.1923    0.0000 H       1  UNL1        0.0331
     19 H           3.6584   -0.6596    0.0000 H       1  UNL1        0.0269
     20 H           4.0569   -1.3499    0.0000 H       1  UNL1        0.0269
     21 H           4.7365   -1.7422    0.0000 H       1  UNL1        0.0277
     22 H           5.5335   -1.7422    0.0000 H       1  UNL1        0.0277
     23 H           5.5335    1.2076    0.0000 H       1  UNL1        0.0314
     24 H           4.7365    1.2076    0.0000 H       1  UNL1        0.0314
     25 H           5.3810   -1.7673    0.0000 H       1  UNL1        0.0241
     26 H           6.0010   -2.3873    0.0000 H       1  UNL1        0.0241
     27 H           6.6210   -1.7673    0.0000 H       1  UNL1        0.0241
     28 H           6.8878   -1.9219    0.0000 H       1  UNL1        0.0582
     29 H           2.3660    0.1767    0.0000 H       1  UNL1        0.0257
     30 H           2.5930   -0.6703    0.0000 H       1  UNL1        0.0257
     31 H           3.4399   -0.4433    0.0000 H       1  UNL1        0.0257
     32 H           4.4399    1.2887    0.0000 H       1  UNL1        0.0257
     33 H           4.2130    2.1357    0.0000 H       1  UNL1        0.0257
     34 H           3.3660    1.9087    0.0000 H       1  UNL1        0.0257
     35 H           8.3368   -1.1002    0.0000 H       1  UNL1        0.0653
     36 H           2.0000    0.9227    0.0000 H       1  UNL1        0.2101
     37 H           7.5034    1.7745    0.0000 H       1  UNL1        0.0279
     38 H           6.8762    2.3873    0.0000 H       1  UNL1        0.0279
     39 H           6.2635    1.7601    0.0000 H       1  UNL1        0.0279
@<TRIPOS>BOND
     1     1     9    1
     2     1    36    1
     3     2    16    2
     4     3     5    1
     5     3     7    1
     6     3     9    1
     7     3    18    1
     8     4     6    1
     9     4     8    1
    10     4    10    1
    11     4    11    1
    12     5     6    1
    13     5    19    1
    14     5    20    1
    15     6    21    1
    16     6    22    1
    17     7     8    1
    18     7    23    1
    19     7    24    1
    20     8    12    2
    21     9    13    1
    22     9    14    1
    23    10    25    1
    24    10    26    1
    25    10    27    1
    26    11    15    2
    27    11    28    1
    28    12    16    1
    29    12    17    1
    30    13    29    1
    31    13    30    1
    32    13    31    1
    33    14    32    1
    34    14    33    1
    35    14    34    1
    36    15    16    1
    37    15    35    1
    38    17    37    1
    39    17    38    1
    40    17    39    1
