@<TRIPOS>MOLECULE
IMPHY002829
 35 37 0 0 0
SMALL
GASTEIGER

@<TRIPOS>ATOM
      1 O           5.5321   -1.0746    0.0000 O.3     1  UNL1       -0.4527
      2 O           2.9176   -2.6092    0.0000 O.3     1  UNL1       -0.5059
      3 O           4.6660   -2.5746    0.0000 O.2     1  UNL1       -0.2448
      4 O           8.9962    1.9254    0.0000 O.3     1  UNL1       -0.4915
      5 O           8.9962   -0.0746    0.0000 O.3     1  UNL1       -0.5033
      6 C           5.5321   -0.0746    0.0000 C.3     1  UNL1        0.1324
      7 C           4.6660    0.4254    0.0000 C.3     1  UNL1        0.0148
      8 C           3.8000   -0.0746    0.0000 C.ar    1  UNL1       -0.0260
      9 C           6.3981    0.4254    0.0000 C.ar    1  UNL1       -0.0033
     10 C           3.8000   -1.0746    0.0000 C.ar    1  UNL1        0.1036
     11 C           4.6660   -1.5746    0.0000 C.2     1  UNL1        0.3436
     12 C           2.9061    0.4601    0.0000 C.ar    1  UNL1       -0.0574
     13 C           7.2641   -0.0746    0.0000 C.ar    1  UNL1       -0.0098
     14 C           6.3981    1.4254    0.0000 C.ar    1  UNL1       -0.0514
     15 C           2.9061   -1.6093    0.0000 C.ar    1  UNL1        0.1311
     16 C           2.0000   -0.0538    0.0000 C.ar    1  UNL1       -0.0580
     17 C           2.0000   -1.0954    0.0000 C.ar    1  UNL1       -0.0193
     18 C           8.1301    0.4254    0.0000 C.ar    1  UNL1        0.1588
     19 C           7.2641    1.9254    0.0000 C.ar    1  UNL1       -0.0159
     20 C           8.1301    1.4254    0.0000 C.ar    1  UNL1        0.1613
     21 C           8.9962    2.9254    0.0000 C.3     1  UNL1        0.0790
     22 H           5.5321    0.5454    0.0000 H       1  UNL1        0.0789
     23 H           5.0646    0.9003    0.0000 H       1  UNL1        0.0353
     24 H           4.2675    0.9003    0.0000 H       1  UNL1        0.0353
     25 H           2.9132    1.0800    0.0000 H       1  UNL1        0.0621
     26 H           7.2641   -0.6946    0.0000 H       1  UNL1        0.0659
     27 H           5.8612    1.7354    0.0000 H       1  UNL1        0.0623
     28 H           1.4643    0.2583    0.0000 H       1  UNL1        0.0619
     29 H           1.4643   -1.4075    0.0000 H       1  UNL1        0.0654
     30 H           7.2641    2.5454    0.0000 H       1  UNL1        0.0655
     31 H           2.3843   -2.9254    0.0000 H       1  UNL1        0.2922
     32 H           8.9962   -0.6946    0.0000 H       1  UNL1        0.2923
     33 H           9.6162    2.9254    0.0000 H       1  UNL1        0.0660
     34 H           8.9962    3.5454    0.0000 H       1  UNL1        0.0660
     35 H           8.3762    2.9254    0.0000 H       1  UNL1        0.0660
@<TRIPOS>BOND
     1     1     6    1
     2     1    11    1
     3     2    15    1
     4     2    31    1
     5     3    11    2
     6     4    20    1
     7     4    21    1
     8     5    18    1
     9     5    32    1
    10     6     7    1
    11     6     9    1
    12     6    22    1
    13     7     8    1
    14     7    23    1
    15     7    24    1
    16     8    10   ar
    17     8    12   ar
    18     9    13   ar
    19     9    14   ar
    20    10    11    1
    21    10    15   ar
    22    12    16   ar
    23    12    25    1
    24    13    18   ar
    25    13    26    1
    26    14    19   ar
    27    14    27    1
    28    15    17   ar
    29    16    17   ar
    30    16    28    1
    31    17    29    1
    32    18    20   ar
    33    19    20   ar
    34    19    30    1
    35    21    33    1
    36    21    34    1
    37    21    35    1
