@<TRIPOS>MOLECULE
IMPHY001218
 24 24 0 0 0
SMALL
GASTEIGER

@<TRIPOS>ATOM
      1 O           2.0000    0.7500    0.0000 O.2     1  UNL1       -0.2876
      2 O           5.4641   -1.2500    0.0000 O.2     1  UNL1       -0.2876
      3 C           3.7320    1.7500    0.0000 C.3     1  UNL1       -0.0178
      4 C           3.7320    0.7500    0.0000 C.2     1  UNL1        0.0055
      5 C           4.5981    2.2500    0.0000 C.3     1  UNL1       -0.0585
      6 C           2.8660    2.2500    0.0000 C.3     1  UNL1       -0.0585
      7 C           2.8660    0.2500    0.0000 C.2     1  UNL1        0.1828
      8 C           4.5981    0.2500    0.0000 C.2     1  UNL1       -0.0076
      9 C           3.7320   -1.2500    0.0000 C.2     1  UNL1       -0.0002
     10 C           4.5981   -0.7500    0.0000 C.2     1  UNL1        0.1824
     11 C           2.8660   -0.7500    0.0000 C.2     1  UNL1       -0.0081
     12 C           3.7320   -2.2500    0.0000 C.3     1  UNL1       -0.0360
     13 H           3.7320    2.3700    0.0000 H       1  UNL1        0.0345
     14 H           4.9081    1.7131    0.0000 H       1  UNL1        0.0235
     15 H           5.1350    2.5600    0.0000 H       1  UNL1        0.0235
     16 H           4.2881    2.7869    0.0000 H       1  UNL1        0.0235
     17 H           3.1760    2.7869    0.0000 H       1  UNL1        0.0235
     18 H           2.3291    2.5600    0.0000 H       1  UNL1        0.0235
     19 H           2.5560    1.7131    0.0000 H       1  UNL1        0.0235
     20 H           5.1350    0.5600    0.0000 H       1  UNL1        0.0660
     21 H           2.3291   -1.0600    0.0000 H       1  UNL1        0.0660
     22 H           3.1120   -2.2500    0.0000 H       1  UNL1        0.0279
     23 H           3.7320   -2.8700    0.0000 H       1  UNL1        0.0279
     24 H           4.3520   -2.2500    0.0000 H       1  UNL1        0.0279
@<TRIPOS>BOND
     1     1     7    2
     2     2    10    2
     3     3     4    1
     4     3     5    1
     5     3     6    1
     6     3    13    1
     7     4     7    1
     8     4     8    2
     9     5    14    1
    10     5    15    1
    11     5    16    1
    12     6    17    1
    13     6    18    1
    14     6    19    1
    15     7    11    1
    16     8    10    1
    17     8    20    1
    18     9    10    1
    19     9    11    2
    20     9    12    1
    21    11    21    1
    22    12    22    1
    23    12    23    1
    24    12    24    1
