@<TRIPOS>MOLECULE
IMPHY005374
 31 31 0 0 0
SMALL
GASTEIGER

@<TRIPOS>ATOM
      1 O           5.4641    1.5000    0.0000 O.3     1  UNL1       -0.4223
      2 O           3.7320    0.5000    0.0000 O.3     1  UNL1       -0.4223
      3 O           7.1962    1.5000    0.0000 O.2     1  UNL1       -0.2507
      4 O           2.8660   -1.0000    0.0000 O.2     1  UNL1       -0.2507
      5 C           6.3301   -1.0000    0.0000 C.ar    1  UNL1       -0.0399
      6 C           7.1962   -1.5000    0.0000 C.3     1  UNL1       -0.0096
      7 C           6.3301    0.0000    0.0000 C.ar    1  UNL1       -0.0121
      8 C           5.4641    0.5000    0.0000 C.ar    1  UNL1        0.1740
      9 C           5.4641   -1.5000    0.0000 C.ar    1  UNL1       -0.0546
     10 C           4.5981    0.0000    0.0000 C.ar    1  UNL1        0.1737
     11 C           4.5981   -1.0000    0.0000 C.ar    1  UNL1       -0.0153
     12 C           7.1962   -2.5000    0.0000 C.2     1  UNL1       -0.0868
     13 C           6.3301    2.0000    0.0000 C.2     1  UNL1        0.3093
     14 C           2.8660    0.0000    0.0000 C.2     1  UNL1        0.3093
     15 C           8.0622   -3.0000    0.0000 C.2     1  UNL1       -0.1023
     16 C           6.3301    3.0000    0.0000 C.3     1  UNL1        0.0336
     17 C           2.0000    0.5000    0.0000 C.3     1  UNL1        0.0336
     18 H           7.8067   -1.6077    0.0000 H       1  UNL1        0.0355
     19 H           7.4082   -0.9174    0.0000 H       1  UNL1        0.0355
     20 H           6.8671    0.3100    0.0000 H       1  UNL1        0.0658
     21 H           5.4641   -2.1200    0.0000 H       1  UNL1        0.0622
     22 H           4.0611   -1.3100    0.0000 H       1  UNL1        0.0656
     23 H           6.6592   -2.8100    0.0000 H       1  UNL1        0.0570
     24 H           8.0622   -3.6200    0.0000 H       1  UNL1        0.0532
     25 H           8.5991   -2.6900    0.0000 H       1  UNL1        0.0532
     26 H           6.9501    3.0000    0.0000 H       1  UNL1        0.0342
     27 H           6.3301    3.6200    0.0000 H       1  UNL1        0.0342
     28 H           5.7101    3.0000    0.0000 H       1  UNL1        0.0342
     29 H           2.3100    1.0369    0.0000 H       1  UNL1        0.0342
     30 H           1.4631    0.8100    0.0000 H       1  UNL1        0.0342
     31 H           1.6900   -0.0369    0.0000 H       1  UNL1        0.0342
@<TRIPOS>BOND
     1     1     8    1
     2     1    13    1
     3     2    10    1
     4     2    14    1
     5     3    13    2
     6     4    14    2
     7     5     6    1
     8     5     7   ar
     9     5     9   ar
    10     6    12    1
    11     6    18    1
    12     6    19    1
    13     7     8   ar
    14     7    20    1
    15     8    10   ar
    16     9    11   ar
    17     9    21    1
    18    10    11   ar
    19    11    22    1
    20    12    15    2
    21    12    23    1
    22    13    16    1
    23    14    17    1
    24    15    24    1
    25    15    25    1
    26    16    26    1
    27    16    27    1
    28    16    28    1
    29    17    29    1
    30    17    30    1
    31    17    31    1
