@<TRIPOS>MOLECULE
IMPHY010231
 92 98 0 0 0
SMALL
GASTEIGER

@<TRIPOS>ATOM
      1 O           8.2565   -0.9129    0.0000 O.3     1  UNL1       -0.4547
      2 O           6.7390   -2.0818    0.0000 O.3     1  UNL1       -0.3790
      3 O           4.9163    1.6800    0.0000 O.3     1  UNL1       -0.3791
      4 O           8.6327    1.4285    0.0000 O.3     1  UNL1       -0.4544
      5 O           7.0415    2.9919    0.0000 O.3     1  UNL1       -0.3822
      6 O           9.0456   -0.4717    0.0000 O.3     1  UNL1       -0.3851
      7 O           9.0340    2.1380    0.0000 O.3     1  UNL1       -0.3741
      8 O           4.0503   -2.5551    0.0000 O.3     1  UNL1       -0.3824
      9 O           8.0604   -2.6339    0.0000 O.2     1  UNL1       -0.2511
     10 O           9.8605    0.2068    0.0000 O.2     1  UNL1       -0.2449
     11 N           3.7210   -0.1490    0.0000 N.3     1  UNL1       -0.2979
     12 C           5.6676    0.2462    0.0000 C.3     1  UNL1        0.0221
     13 C           5.6676   -0.6213    0.0000 C.3     1  UNL1        0.0043
     14 C           6.3459    0.7872    0.0000 C.3     1  UNL1       -0.0184
     15 C           4.6656    0.1402    0.0000 C.3     1  UNL1        0.0280
     16 C           7.1918   -0.9692    0.0000 C.3     1  UNL1        0.0446
     17 C           7.1918    0.5941    0.0000 C.3     1  UNL1        0.0454
     18 C           7.5682   -0.1876    0.0000 C.3     1  UNL1        0.1547
     19 C           6.3459   -1.1623    0.0000 C.3     1  UNL1        0.0704
     20 C           4.9163   -1.0551    0.0000 C.3     1  UNL1        0.0127
     21 C           4.9163    0.6800    0.0000 C.3     1  UNL1        0.0660
     22 C           6.2682    1.6512    0.0000 C.3     1  UNL1       -0.0140
     23 C           7.0659    1.9922    0.0000 C.3     1  UNL1        0.1318
     24 C           7.6367    1.3389    0.0000 C.3     1  UNL1        0.1412
     25 C           8.2131    0.0824    0.0000 C.3     1  UNL1        0.1244
     26 C           3.7210   -0.9009    0.0000 C.3     1  UNL1        0.0073
     27 C           8.2131    1.5669    0.0000 C.3     1  UNL1        0.1199
     28 C           4.1649   -0.6213    0.0000 C.3     1  UNL1       -0.0414
     29 C           4.1649    0.2462    0.0000 C.3     1  UNL1       -0.0254
     30 C           4.9163   -2.0551    0.0000 C.3     1  UNL1        0.0544
     31 C           2.9170    0.4457    0.0000 C.3     1  UNL1       -0.0036
     32 C           8.6553   -1.8300    0.0000 C.2     1  UNL1        0.3046
     33 C           6.1391   -2.8819    0.0000 C.3     1  UNL1        0.0368
     34 C           2.0000    0.0468    0.0000 C.3     1  UNL1       -0.0523
     35 C           4.0502    2.1800    0.0000 C.3     1  UNL1        0.0368
     36 C           9.5993    1.1721    0.0000 C.2     1  UNL1        0.3395
     37 C           8.9498    3.1344    0.0000 C.3     1  UNL1        0.0370
     38 C           9.6488   -1.9432    0.0000 C.3     1  UNL1        0.0333
     39 C           4.0503   -3.5551    0.0000 C.3     1  UNL1        0.0365
     40 C          10.3046    1.8810    0.0000 C.ar    1  UNL1        0.0590
     41 C          11.2712    1.6246    0.0000 C.ar    1  UNL1       -0.0478
     42 C          10.0434    2.8462    0.0000 C.ar    1  UNL1       -0.0478
     43 C          11.9765    2.3334    0.0000 C.ar    1  UNL1       -0.0610
     44 C          10.7487    3.5551    0.0000 C.ar    1  UNL1       -0.0610
     45 C          11.7153    3.2987    0.0000 C.ar    1  UNL1       -0.0617
     46 H           5.6041   -1.4690    0.0000 H       1  UNL1        0.0339
     47 H           5.5643    1.1212    0.0000 H       1  UNL1        0.0314
     48 H           4.5417    0.7477    0.0000 H       1  UNL1        0.0474
     49 H           7.5783   -1.4540    0.0000 H       1  UNL1        0.0381
     50 H           8.0409    0.5560    0.0000 H       1  UNL1        0.0380
     51 H           6.1455   -1.7490    0.0000 H       1  UNL1        0.0603
     52 H           5.4532    0.9900    0.0000 H       1  UNL1        0.0602
     53 H           6.0854    2.2437    0.0000 H       1  UNL1        0.0298
     54 H           5.6598    1.5314    0.0000 H       1  UNL1        0.0298
     55 H           7.8676    1.9143    0.0000 H       1  UNL1        0.0768
     56 H           8.7596    0.3751    0.0000 H       1  UNL1        0.0661
     57 H           3.1015   -0.8744    0.0000 H       1  UNL1        0.0433
     58 H           3.6680   -1.5186    0.0000 H       1  UNL1        0.0433
     59 H           8.1349    2.1819    0.0000 H       1  UNL1        0.0653
     60 H           3.5544   -0.5137    0.0000 H       1  UNL1        0.0273
     61 H           3.9529   -1.2040    0.0000 H       1  UNL1        0.0273
     62 H           3.9529    0.8288    0.0000 H       1  UNL1        0.0290
     63 H           3.5544    0.1386    0.0000 H       1  UNL1        0.0290
     64 H           5.1283   -2.6377    0.0000 H       1  UNL1        0.0566
     65 H           5.5269   -1.9475    0.0000 H       1  UNL1        0.0566
     66 H           3.3666    0.8725    0.0000 H       1  UNL1        0.0424
     67 H           2.5747    0.9626    0.0000 H       1  UNL1        0.0424
     68 H           7.5707    3.3150    0.0000 H       1  UNL1        0.2104
     69 H           9.0062   -1.0904    0.0000 H       1  UNL1        0.2101
     70 H           5.6430   -2.5100    0.0000 H       1  UNL1        0.0524
     71 H           5.7672   -3.3780    0.0000 H       1  UNL1        0.0524
     72 H           6.6352   -3.2538    0.0000 H       1  UNL1        0.0524
     73 H           1.7527    0.6153    0.0000 H       1  UNL1        0.0242
     74 H           1.4315   -0.2006    0.0000 H       1  UNL1        0.0242
     75 H           2.2473   -0.5218    0.0000 H       1  UNL1        0.0242
     76 H           4.3602    2.7170    0.0000 H       1  UNL1        0.0524
     77 H           3.5133    2.4900    0.0000 H       1  UNL1        0.0524
     78 H           3.7402    1.6431    0.0000 H       1  UNL1        0.0524
     79 H           9.5676    3.1866    0.0000 H       1  UNL1        0.0524
     80 H           8.8976    3.7522    0.0000 H       1  UNL1        0.0524
     81 H           8.3320    3.0823    0.0000 H       1  UNL1        0.0524
     82 H           9.5786   -2.5593    0.0000 H       1  UNL1        0.0342
     83 H          10.2648   -2.0135    0.0000 H       1  UNL1        0.0342
     84 H           9.7190   -1.3272    0.0000 H       1  UNL1        0.0342
     85 H           3.4303   -3.5551    0.0000 H       1  UNL1        0.0523
     86 H           4.0503   -4.1751    0.0000 H       1  UNL1        0.0523
     87 H           4.6703   -3.5551    0.0000 H       1  UNL1        0.0523
     88 H          11.4331    1.0261    0.0000 H       1  UNL1        0.0626
     89 H           9.4441    3.0052    0.0000 H       1  UNL1        0.0626
     90 H          12.5758    2.1745    0.0000 H       1  UNL1        0.0618
     91 H          10.5868    4.1536    0.0000 H       1  UNL1        0.0618
     92 H          12.1526    3.7382    0.0000 H       1  UNL1        0.0618
@<TRIPOS>BOND
     1    18     1    1
     2     1    32    1
     3     2    19    1
     4     2    33    1
     5     3    21    1
     6     3    35    1
     7    24     4    1
     8     4    36    1
     9    23     5    1
    10     5    68    1
    11    25     6    1
    12     6    69    1
    13    27     7    1
    14     7    37    1
    15     8    30    1
    16     8    39    1
    17     9    32    2
    18    10    36    2
    19    11    15    1
    20    11    26    1
    21    11    31    1
    22    12    13    1
    23    12    14    1
    24    12    15    1
    25    12    21    1
    26    13    19    1
    27    13    20    1
    28    13    46    1
    29    14    17    1
    30    14    22    1
    31    14    47    1
    32    15    16    1
    33    15    48    1
    34    16    18    1
    35    16    19    1
    36    16    49    1
    37    17    18    1
    38    17    24    1
    39    17    50    1
    40    18    25    1
    41    19    51    1
    42    20    26    1
    43    20    28    1
    44    20    30    1
    45    21    29    1
    46    21    52    1
    47    22    23    1
    48    22    53    1
    49    22    54    1
    50    23    24    1
    51    23    27    1
    52    24    55    1
    53    25    27    1
    54    25    56    1
    55    26    57    1
    56    26    58    1
    57    27    59    1
    58    28    29    1
    59    28    60    1
    60    28    61    1
    61    29    62    1
    62    29    63    1
    63    30    64    1
    64    30    65    1
    65    31    34    1
    66    31    66    1
    67    31    67    1
    68    32    38    1
    69    33    70    1
    70    33    71    1
    71    33    72    1
    72    34    73    1
    73    34    74    1
    74    34    75    1
    75    35    76    1
    76    35    77    1
    77    35    78    1
    78    36    40    1
    79    37    79    1
    80    37    80    1
    81    37    81    1
    82    38    82    1
    83    38    83    1
    84    38    84    1
    85    39    85    1
    86    39    86    1
    87    39    87    1
    88    40    41   ar
    89    40    42   ar
    90    41    43   ar
    91    41    88    1
    92    42    44   ar
    93    42    89    1
    94    43    45   ar
    95    43    90    1
    96    44    45   ar
    97    44    91    1
    98    45    92    1
