@<TRIPOS>MOLECULE
IMPHY006338
 28 29 0 0 0
SMALL
GASTEIGER

@<TRIPOS>ATOM
      1 O           5.2619   -0.6815    0.0000 O.3     1  UNL1       -0.4531
      2 O           4.9889   -2.4367    0.0000 O.2     1  UNL1       -0.2449
      3 C           4.6783    0.1233    0.0000 C.3     1  UNL1        0.1291
      4 C           4.9889    1.0738    0.0000 C.3     1  UNL1       -0.0114
      5 C           3.7320   -0.1815    0.0000 C.ar    1  UNL1        0.0067
      6 C           5.9674    1.2800    0.0000 C.3     1  UNL1       -0.0496
      7 C           3.7320   -1.1815    0.0000 C.ar    1  UNL1        0.0657
      8 C           6.2781    2.2305    0.0000 C.3     1  UNL1       -0.0558
      9 C           4.6783   -1.4862    0.0000 C.2     1  UNL1        0.3401
     10 C           2.8660    0.3185    0.0000 C.ar    1  UNL1       -0.0543
     11 C           2.8660   -1.6815    0.0000 C.ar    1  UNL1       -0.0474
     12 C           7.2566    2.4367    0.0000 C.3     1  UNL1       -0.0653
     13 C           2.0000   -0.1815    0.0000 C.ar    1  UNL1       -0.0613
     14 C           2.0000   -1.1815    0.0000 C.ar    1  UNL1       -0.0610
     15 H           5.2908    0.2194    0.0000 H       1  UNL1        0.0785
     16 H           4.9684    1.6934    0.0000 H       1  UNL1        0.0304
     17 H           4.3751    1.1611    0.0000 H       1  UNL1        0.0304
     18 H           5.9880    0.6603    0.0000 H       1  UNL1        0.0266
     19 H           6.5812    1.1926    0.0000 H       1  UNL1        0.0266
     20 H           6.2575    2.8502    0.0000 H       1  UNL1        0.0263
     21 H           5.6643    2.3179    0.0000 H       1  UNL1        0.0263
     22 H           2.8660    0.9385    0.0000 H       1  UNL1        0.0622
     23 H           2.8660   -2.3015    0.0000 H       1  UNL1        0.0626
     24 H           7.3845    1.8301    0.0000 H       1  UNL1        0.0230
     25 H           7.8633    2.5646    0.0000 H       1  UNL1        0.0230
     26 H           7.1288    3.0434    0.0000 H       1  UNL1        0.0230
     27 H           1.4631    0.1285    0.0000 H       1  UNL1        0.0618
     28 H           1.4631   -1.4915    0.0000 H       1  UNL1        0.0618
@<TRIPOS>BOND
     1     1     3    1
     2     1     9    1
     3     2     9    2
     4     3     4    1
     5     3     5    1
     6     3    15    1
     7     4     6    1
     8     4    16    1
     9     4    17    1
    10     5     7   ar
    11     5    10   ar
    12     6     8    1
    13     6    18    1
    14     6    19    1
    15     7     9    1
    16     7    11   ar
    17     8    12    1
    18     8    20    1
    19     8    21    1
    20    10    13   ar
    21    10    22    1
    22    11    14   ar
    23    11    23    1
    24    12    24    1
    25    12    25    1
    26    12    26    1
    27    13    14   ar
    28    13    27    1
    29    14    28    1
