@<TRIPOS>MOLECULE
IMPHY010177
 76 81 0 0 0
SMALL
GASTEIGER

@<TRIPOS>ATOM
      1 O           5.0519   -3.5249    0.0000 O.3     1  UNL1       -0.4570
      2 O           6.3194   -1.5702    0.0000 O.3     1  UNL1       -0.3733
      3 O           7.0625   -2.2394    0.0000 O.3     1  UNL1       -0.4658
      4 O           6.8547   -3.2174    0.0000 O.2     1  UNL1       -0.2474
      5 O           6.4218    2.9201    0.0000 O.3     1  UNL1       -0.4947
      6 O           6.3391   -4.6839    0.0000 O.2     1  UNL1       -0.2512
      7 O           2.7693    5.2191    0.0000 O.2     1  UNL1       -0.2758
      8 N           2.6254   -1.2962    0.0000 N.3     1  UNL1       -0.2939
      9 N           5.7049   -0.2956    0.0000 N.pl3   1  UNL1       -0.3252
     10 N           3.5783    3.6313    0.0000 N.am    1  UNL1       -0.3084
     11 C           4.1652   -0.7959    0.0000 C.3     1  UNL1        0.0369
     12 C           3.5397   -1.4906    0.0000 C.3     1  UNL1        0.0348
     13 C           3.8286   -2.3795    0.0000 C.3     1  UNL1        0.0453
     14 C           5.0795   -0.9903    0.0000 C.3     1  UNL1        0.0772
     15 C           5.3683   -1.8792    0.0000 C.3     1  UNL1        0.2195
     16 C           3.7801    0.2397    0.0000 C.3     1  UNL1       -0.0272
     17 C           4.7429   -2.5739    0.0000 C.3     1  UNL1        0.1542
     18 C           4.5018    0.7877    0.0000 C.ar    1  UNL1       -0.0162
     19 C           2.3366   -0.4073    0.0000 C.3     1  UNL1        0.0005
     20 C           4.1376   -3.3306    0.0000 C.3     1  UNL1       -0.0418
     21 C           5.4161    0.5933    0.0000 C.ar    1  UNL1        0.0372
     22 C           3.2031   -3.0742    0.0000 C.2     1  UNL1       -0.0755
     23 C           2.0000   -1.9908    0.0000 C.3     1  UNL1        0.0175
     24 C           2.2888   -2.8798    0.0000 C.2     1  UNL1       -0.0733
     25 C           6.1115   -2.5484    0.0000 C.2     1  UNL1        0.3446
     26 C           4.2129    1.6766    0.0000 C.ar    1  UNL1       -0.0477
     27 C           6.6560    0.0134    0.0000 C.3     1  UNL1        0.0011
     28 C           3.4685   -4.0737    0.0000 C.3     1  UNL1       -0.0643
     29 C           6.0415    1.2880    0.0000 C.ar    1  UNL1        0.0017
     30 C           4.8384    2.3713    0.0000 C.ar    1  UNL1        0.0148
     31 C           5.7527    2.1769    0.0000 C.ar    1  UNL1        0.1268
     32 C           4.5294    3.3223    0.0000 C.3     1  UNL1        0.0522
     33 C           5.3609   -4.4760    0.0000 C.2     1  UNL1        0.3043
     34 C           5.1172    4.1313    0.0000 C.3     1  UNL1       -0.0220
     35 C           4.6918   -5.2191    0.0000 C.3     1  UNL1        0.0332
     36 C           7.8057   -2.9085    0.0000 C.3     1  UNL1        0.0818
     37 C           4.5294    4.9403    0.0000 C.3     1  UNL1        0.0259
     38 C           3.5783    4.6313    0.0000 C.2     1  UNL1        0.2135
     39 C           7.4000    2.7122    0.0000 C.3     1  UNL1        0.0788
     40 H           3.2771   -0.6822    0.0000 H       1  UNL1        0.0482
     41 H           5.9109   -1.1670    0.0000 H       1  UNL1        0.0544
     42 H           4.3564    0.4684    0.0000 H       1  UNL1        0.0287
     43 H           3.5389    0.8108    0.0000 H       1  UNL1        0.0287
     44 H           5.3493   -2.7028    0.0000 H       1  UNL1        0.0779
     45 H           2.1034    0.1672    0.0000 H       1  UNL1        0.0427
     46 H           1.7542   -0.6198    0.0000 H       1  UNL1        0.0427
     47 H           4.5193   -3.8192    0.0000 H       1  UNL1        0.0273
     48 H           4.6850   -3.0395    0.0000 H       1  UNL1        0.0273
     49 H           3.3947   -3.6638    0.0000 H       1  UNL1        0.0577
     50 H           1.6183   -1.5023    0.0000 H       1  UNL1        0.0470
     51 H           1.4526   -2.2819    0.0000 H       1  UNL1        0.0470
     52 H           1.8740   -3.3406    0.0000 H       1  UNL1        0.0582
     53 H           3.6065    1.8055    0.0000 H       1  UNL1        0.0625
     54 H           6.7342   -1.1095    0.0000 H       1  UNL1        0.2111
     55 H           6.8476   -0.5763    0.0000 H       1  UNL1        0.0428
     56 H           7.2456    0.2050    0.0000 H       1  UNL1        0.0428
     57 H           6.4644    0.6030    0.0000 H       1  UNL1        0.0428
     58 H           3.0077   -3.6589    0.0000 H       1  UNL1        0.0230
     59 H           3.0536   -4.5345    0.0000 H       1  UNL1        0.0230
     60 H           3.9292   -4.4886    0.0000 H       1  UNL1        0.0230
     61 H           6.6480    1.1590    0.0000 H       1  UNL1        0.0673
     62 H           3.9283    2.7213    0.0000 H       1  UNL1        0.0549
     63 H           5.5779    3.7165    0.0000 H       1  UNL1        0.0291
     64 H           5.5779    4.5462    0.0000 H       1  UNL1        0.0291
     65 H           3.0767    3.2669    0.0000 H       1  UNL1        0.1493
     66 H           4.2310   -4.8043    0.0000 H       1  UNL1        0.0342
     67 H           4.2769   -5.6799    0.0000 H       1  UNL1        0.0342
     68 H           5.1525   -5.6340    0.0000 H       1  UNL1        0.0342
     69 H           7.3908   -3.3692    0.0000 H       1  UNL1        0.0661
     70 H           8.2664   -3.3233    0.0000 H       1  UNL1        0.0661
     71 H           8.2205   -2.4477    0.0000 H       1  UNL1        0.0661
     72 H           5.0663    5.2504    0.0000 H       1  UNL1        0.0359
     73 H           4.2772    5.5068    0.0000 H       1  UNL1        0.0359
     74 H           7.2711    2.1057    0.0000 H       1  UNL1        0.0660
     75 H           8.0064    2.5832    0.0000 H       1  UNL1        0.0660
     76 H           7.5289    3.3186    0.0000 H       1  UNL1        0.0660
@<TRIPOS>BOND
     1    17     1    1
     2     1    33    1
     3    15     2    1
     4     2    54    1
     5     3    25    1
     6     3    36    1
     7     4    25    2
     8     5    31    1
     9     5    39    1
    10     6    33    2
    11     7    38    2
    12     8    12    1
    13     8    19    1
    14     8    23    1
    15     9    14    1
    16     9    21    1
    17     9    27    1
    18    10    32    1
    19    10    38   am
    20    10    65    1
    21    11    12    1
    22    11    14    1
    23    11    16    1
    24    11    18    1
    25    12    13    1
    26    12    40    1
    27    13    17    1
    28    13    20    1
    29    13    22    1
    30    14    15    1
    31    14    41    1
    32    15    17    1
    33    15    25    1
    34    16    19    1
    35    16    42    1
    36    16    43    1
    37    17    44    1
    38    18    21   ar
    39    18    26   ar
    40    19    45    1
    41    19    46    1
    42    20    28    1
    43    20    47    1
    44    20    48    1
    45    21    29   ar
    46    22    24    2
    47    22    49    1
    48    23    24    1
    49    23    50    1
    50    23    51    1
    51    24    52    1
    52    26    30   ar
    53    26    53    1
    54    27    55    1
    55    27    56    1
    56    27    57    1
    57    28    58    1
    58    28    59    1
    59    28    60    1
    60    29    31   ar
    61    29    61    1
    62    30    31   ar
    63    30    32    1
    64    32    34    1
    65    32    62    1
    66    33    35    1
    67    34    37    1
    68    34    63    1
    69    34    64    1
    70    35    66    1
    71    35    67    1
    72    35    68    1
    73    36    69    1
    74    36    70    1
    75    36    71    1
    76    37    38    1
    77    37    72    1
    78    37    73    1
    79    39    74    1
    80    39    75    1
    81    39    76    1
