@<TRIPOS>MOLECULE
IMPHY010800
 165 173 0 0 0
SMALL
GASTEIGER

@<TRIPOS>ATOM
      1 O          11.1972   -2.9673    0.0000 O.3     1  UNL1       -0.3449
      2 O          12.0899    6.0746    0.0000 O.3     1  UNL1       -0.3912
      3 O           9.4651   -2.9673    0.0000 O.3     1  UNL1       -0.3431
      4 O          11.1972   -4.9673    0.0000 O.3     1  UNL1       -0.3841
      5 O           9.4651   -5.9673    0.0000 O.3     1  UNL1       -0.3864
      6 O           7.7331   -4.9673    0.0000 O.3     1  UNL1       -0.3402
      7 O           8.4723    8.8876    0.0000 O.3     1  UNL1       -0.3907
      8 O           6.8671   -3.4673    0.0000 O.3     1  UNL1       -0.3405
      9 O           6.0010   -5.9673    0.0000 O.3     1  UNL1       -0.3378
     10 O           4.2690   -4.9673    0.0000 O.3     1  UNL1       -0.3864
     11 O           4.2690   -2.9673    0.0000 O.3     1  UNL1       -0.3865
     12 O           5.1350   -1.4673    0.0000 O.3     1  UNL1       -0.3460
     13 O           4.2690   -5.9673    0.0000 O.3     1  UNL1       -0.3431
     14 O           6.0010   -7.9673    0.0000 O.3     1  UNL1       -0.3841
     15 O           4.2690   -8.9673    0.0000 O.3     1  UNL1       -0.3864
     16 O           4.2690    0.0327    0.0000 O.3     1  UNL1       -0.3405
     17 O           2.5369   -7.9673    0.0000 O.3     1  UNL1       -0.3866
     18 O           6.8671   -0.4673    0.0000 O.3     1  UNL1       -0.3841
     19 O           6.8671    1.5327    0.0000 O.3     1  UNL1       -0.3864
     20 O           5.1350    2.5327    0.0000 O.3     1  UNL1       -0.3865
     21 O           2.5369    1.0327    0.0000 O.3     1  UNL1       -0.3924
     22 C          11.2250    1.1018    0.0000 C.3     1  UNL1       -0.0194
     23 C          11.2211    0.1018    0.0000 C.3     1  UNL1       -0.0193
     24 C          10.3565    0.6052    0.0000 C.3     1  UNL1       -0.0401
     25 C          12.0929    1.5985    0.0000 C.3     1  UNL1       -0.0289
     26 C          12.0852   -0.4015    0.0000 C.3     1  UNL1       -0.0273
     27 C          12.1130    2.6399    0.0000 C.3     1  UNL1       -0.0231
     28 C          10.3169    1.6122    0.0000 C.3     1  UNL1       -0.0460
     29 C          11.2170    3.1711    0.0000 C.3     1  UNL1       -0.0232
     30 C          10.3092   -0.4015    0.0000 C.3     1  UNL1       -0.0442
     31 C          12.9570    1.0952    0.0000 C.3     1  UNL1       -0.0489
     32 C          12.9532    0.0952    0.0000 C.3     1  UNL1       -0.0488
     33 C          10.3129    2.6538    0.0000 C.3     1  UNL1       -0.0463
     34 C          12.0973   -1.4430    0.0000 C.3     1  UNL1       -0.0052
     35 C          11.4466    4.1808    0.0000 C.3     1  UNL1       -0.0302
     36 C          12.8887    3.3259    0.0000 C.3     1  UNL1       -0.0466
     37 C          10.2971   -1.4430    0.0000 C.3     1  UNL1       -0.0255
     38 C          11.1972   -1.9673    0.0000 C.3     1  UNL1        0.0672
     39 C          12.4777    4.2763    0.0000 C.3     1  UNL1       -0.0489
     40 C          12.9732    2.1300    0.0000 C.3     1  UNL1       -0.0588
     41 C          10.3568    3.6811    0.0000 C.3     1  UNL1       -0.0588
     42 C          10.7874    4.9328    0.0000 C.3     1  UNL1       -0.0142
     43 C          13.0972   -1.4353    0.0000 C.3     1  UNL1       -0.0572
     44 C          12.6039   -2.3052    0.0000 C.3     1  UNL1       -0.0572
     45 C          11.1090    5.8797    0.0000 C.3     1  UNL1        0.0615
     46 C           9.8066    4.7379    0.0000 C.3     1  UNL1       -0.0598
     47 C          10.3312   -3.4673    0.0000 C.3     1  UNL1        0.1881
     48 C          10.4498    6.6316    0.0000 C.3     1  UNL1       -0.0080
     49 C          10.3312   -4.4673    0.0000 C.3     1  UNL1        0.1341
     50 C           9.4651   -4.9673    0.0000 C.3     1  UNL1        0.1143
     51 C          10.7715    7.5785    0.0000 C.2     1  UNL1       -0.0804
     52 C           8.5991   -3.4673    0.0000 C.3     1  UNL1        0.0877
     53 C           8.5991   -4.4673    0.0000 C.3     1  UNL1        0.1160
     54 C          10.1123    8.3305    0.0000 C.2     1  UNL1       -0.0514
     55 C           7.7331   -2.9673    0.0000 C.3     1  UNL1       -0.0361
     56 C           9.1315    8.1356    0.0000 C.3     1  UNL1        0.0650
     57 C          10.4339    9.2773    0.0000 C.3     1  UNL1       -0.0416
     58 C           6.8671   -4.4673    0.0000 C.3     1  UNL1        0.1888
     59 C           6.0010   -4.9673    0.0000 C.3     1  UNL1        0.1406
     60 C           5.1350   -4.4673    0.0000 C.3     1  UNL1        0.1144
     61 C           6.0010   -2.9673    0.0000 C.3     1  UNL1        0.1134
     62 C           5.1350   -3.4673    0.0000 C.3     1  UNL1        0.1119
     63 C           6.0010   -1.9673    0.0000 C.3     1  UNL1        0.0796
     64 C           5.1350   -6.4673    0.0000 C.3     1  UNL1        0.1884
     65 C           5.1350   -7.4673    0.0000 C.3     1  UNL1        0.1341
     66 C           4.2690   -7.9673    0.0000 C.3     1  UNL1        0.1140
     67 C           3.4030   -6.4673    0.0000 C.3     1  UNL1        0.0873
     68 C           3.4030   -7.4673    0.0000 C.3     1  UNL1        0.1095
     69 C           5.1350   -0.4673    0.0000 C.3     1  UNL1        0.1880
     70 C           6.0010    0.0327    0.0000 C.3     1  UNL1        0.1341
     71 C           2.5369   -5.9673    0.0000 C.3     1  UNL1       -0.0361
     72 C           6.0010    1.0327    0.0000 C.3     1  UNL1        0.1141
     73 C           4.2690    1.0327    0.0000 C.3     1  UNL1        0.1130
     74 C           5.1350    1.5327    0.0000 C.3     1  UNL1        0.1119
     75 C           3.4030    1.5327    0.0000 C.3     1  UNL1        0.0730
     76 H           9.9599    1.0817    0.0000 H       1  UNL1        0.0276
     77 H           9.9562    0.1317    0.0000 H       1  UNL1        0.0276
     78 H          12.8339    2.0149    0.0000 H       1  UNL1        0.0312
     79 H          12.8230   -0.8237    0.0000 H       1  UNL1        0.0312
     80 H           9.7057    1.7159    0.0000 H       1  UNL1        0.0271
     81 H          10.1101    1.0277    0.0000 H       1  UNL1        0.0271
     82 H          10.1069    0.1846    0.0000 H       1  UNL1        0.0272
     83 H           9.6971   -0.5005    0.0000 H       1  UNL1        0.0272
     84 H          13.5672    0.9851    0.0000 H       1  UNL1        0.0268
     85 H          13.1713    1.6769    0.0000 H       1  UNL1        0.0268
     86 H          13.1630   -0.4883    0.0000 H       1  UNL1        0.0268
     87 H          13.5641    0.2005    0.0000 H       1  UNL1        0.0268
     88 H          10.1016    3.2367    0.0000 H       1  UNL1        0.0271
     89 H           9.7025    2.5454    0.0000 H       1  UNL1        0.0271
     90 H          11.7614    4.9704    0.0000 H       1  UNL1        0.0310
     91 H          13.2483    2.8208    0.0000 H       1  UNL1        0.0271
     92 H          13.4287    3.6304    0.0000 H       1  UNL1        0.0271
     93 H           9.6875   -1.3299    0.0000 H       1  UNL1        0.0290
     94 H          10.0813   -2.0243    0.0000 H       1  UNL1        0.0290
     95 H          11.7347   -2.2763    0.0000 H       1  UNL1        0.0602
     96 H          13.0694    4.4612    0.0000 H       1  UNL1        0.0268
     97 H          12.3559    4.8842    0.0000 H       1  UNL1        0.0268
     98 H          12.6570    1.5966    0.0000 H       1  UNL1        0.0235
     99 H          13.5065    1.8138    0.0000 H       1  UNL1        0.0235
    100 H          13.2894    2.6633    0.0000 H       1  UNL1        0.0235
    101 H          10.6730    4.2144    0.0000 H       1  UNL1        0.0235
    102 H           9.8235    3.9973    0.0000 H       1  UNL1        0.0235
    103 H          10.0406    3.1478    0.0000 H       1  UNL1        0.0235
    104 H          10.5880    4.3458    0.0000 H       1  UNL1        0.0326
    105 H          12.0694   -2.6193    0.0000 H       1  UNL1        0.0236
    106 H          12.9180   -2.8397    0.0000 H       1  UNL1        0.0236
    107 H          13.1020   -2.0553    0.0000 H       1  UNL1        0.0236
    108 H          13.7172   -1.4306    0.0000 H       1  UNL1        0.0236
    109 H          13.1384   -1.9911    0.0000 H       1  UNL1        0.0236
    110 H          13.0924   -0.8154    0.0000 H       1  UNL1        0.0236
    111 H          11.3085    6.4667    0.0000 H       1  UNL1        0.0599
    112 H           9.6858    5.3460    0.0000 H       1  UNL1        0.0233
    113 H           9.1985    4.6171    0.0000 H       1  UNL1        0.0233
    114 H           9.9274    4.1298    0.0000 H       1  UNL1        0.0233
    115 H          10.3312   -2.8473    0.0000 H       1  UNL1        0.0937
    116 H           9.9063    6.9300    0.0000 H       1  UNL1        0.0332
    117 H          10.0617    6.1482    0.0000 H       1  UNL1        0.0332
    118 H          12.2893    6.6616    0.0000 H       1  UNL1        0.2098
    119 H          10.3312   -5.0873    0.0000 H       1  UNL1        0.0671
    120 H           8.9282   -5.2773    0.0000 H       1  UNL1        0.0648
    121 H          11.3796    7.6993    0.0000 H       1  UNL1        0.0573
    122 H           8.5991   -2.8473    0.0000 H       1  UNL1        0.0621
    123 H           8.0622   -4.1573    0.0000 H       1  UNL1        0.0650
    124 H          11.7341   -4.6573    0.0000 H       1  UNL1        0.2101
    125 H           8.0431   -2.4304    0.0000 H       1  UNL1        0.0255
    126 H           7.1962   -2.6573    0.0000 H       1  UNL1        0.0255
    127 H           7.4231   -3.5043    0.0000 H       1  UNL1        0.0255
    128 H          10.0021   -6.2773    0.0000 H       1  UNL1        0.2100
    129 H           8.6014    7.8141    0.0000 H       1  UNL1        0.0604
    130 H           9.3561    7.5577    0.0000 H       1  UNL1        0.0604
    131 H          11.0210    9.0779    0.0000 H       1  UNL1        0.0275
    132 H          10.6333    9.8644    0.0000 H       1  UNL1        0.0275
    133 H           9.8469    9.4768    0.0000 H       1  UNL1        0.0275
    134 H           6.8671   -5.0873    0.0000 H       1  UNL1        0.0938
    135 H           5.4641   -5.2773    0.0000 H       1  UNL1        0.0675
    136 H           7.8642    8.7667    0.0000 H       1  UNL1        0.2098
    137 H           4.5981   -4.1573    0.0000 H       1  UNL1        0.0648
    138 H           6.5380   -2.6573    0.0000 H       1  UNL1        0.0647
    139 H           5.1350   -2.8473    0.0000 H       1  UNL1        0.0647
    140 H           6.6116   -2.0750    0.0000 H       1  UNL1        0.0587
    141 H           6.2131   -1.3847    0.0000 H       1  UNL1        0.0587
    142 H           3.7320   -4.6573    0.0000 H       1  UNL1        0.2100
    143 H           5.6720   -6.7773    0.0000 H       1  UNL1        0.0938
    144 H           3.7320   -3.2773    0.0000 H       1  UNL1        0.2100
    145 H           5.1350   -8.0873    0.0000 H       1  UNL1        0.0671
    146 H           3.7320   -8.2773    0.0000 H       1  UNL1        0.0648
    147 H           3.4030   -5.8473    0.0000 H       1  UNL1        0.0621
    148 H           2.8660   -7.1573    0.0000 H       1  UNL1        0.0646
    149 H           5.6720   -0.7773    0.0000 H       1  UNL1        0.0937
    150 H           6.0010   -8.5873    0.0000 H       1  UNL1        0.2101
    151 H           6.5380    0.3427    0.0000 H       1  UNL1        0.0671
    152 H           2.8469   -5.4304    0.0000 H       1  UNL1        0.0255
    153 H           2.0000   -5.6573    0.0000 H       1  UNL1        0.0255
    154 H           2.2269   -6.5043    0.0000 H       1  UNL1        0.0255
    155 H           3.7320   -9.2773    0.0000 H       1  UNL1        0.2100
    156 H           2.0000   -7.6573    0.0000 H       1  UNL1        0.2100
    157 H           6.0010    1.6527    0.0000 H       1  UNL1        0.0648
    158 H           3.7320    0.7227    0.0000 H       1  UNL1        0.0647
    159 H           4.5981    1.8427    0.0000 H       1  UNL1        0.0647
    160 H           7.4040   -0.1573    0.0000 H       1  UNL1        0.2101
    161 H           3.8015    2.0076    0.0000 H       1  UNL1        0.0584
    162 H           3.0044    2.0076    0.0000 H       1  UNL1        0.0584
    163 H           6.8671    2.1527    0.0000 H       1  UNL1        0.2100
    164 H           4.5981    2.8427    0.0000 H       1  UNL1        0.2100
    165 H           2.0000    1.3427    0.0000 H       1  UNL1        0.2095
@<TRIPOS>BOND
     1    38     1    1
     2    47     1    1
     3     2    45    1
     4     2   118    1
     5     3    47    1
     6     3    52    1
     7    49     4    1
     8     4   124    1
     9    50     5    1
    10     5   128    1
    11    53     6    1
    12    58     6    1
    13     7    56    1
    14     7   136    1
    15     8    58    1
    16     8    61    1
    17    59     9    1
    18    64     9    1
    19    60    10    1
    20    10   142    1
    21    62    11    1
    22    11   144    1
    23    12    63    1
    24    69    12    1
    25    13    64    1
    26    13    67    1
    27    65    14    1
    28    14   150    1
    29    66    15    1
    30    15   155    1
    31    16    69    1
    32    16    73    1
    33    68    17    1
    34    17   156    1
    35    70    18    1
    36    18   160    1
    37    72    19    1
    38    19   163    1
    39    74    20    1
    40    20   164    1
    41    21    75    1
    42    21   165    1
    43    22    23    1
    44    22    24    1
    45    22    25    1
    46    22    28    1
    47    23    24    1
    48    23    26    1
    49    23    30    1
    50    24    76    1
    51    24    77    1
    52    25    27    1
    53    25    31    1
    54    25    78    1
    55    26    32    1
    56    26    34    1
    57    26    79    1
    58    27    29    1
    59    27    36    1
    60    27    40    1
    61    28    33    1
    62    28    80    1
    63    28    81    1
    64    29    33    1
    65    29    35    1
    66    29    41    1
    67    30    37    1
    68    30    82    1
    69    30    83    1
    70    31    32    1
    71    31    84    1
    72    31    85    1
    73    32    86    1
    74    32    87    1
    75    33    88    1
    76    33    89    1
    77    34    38    1
    78    34    43    1
    79    34    44    1
    80    35    39    1
    81    35    42    1
    82    35    90    1
    83    36    39    1
    84    36    91    1
    85    36    92    1
    86    37    38    1
    87    37    93    1
    88    37    94    1
    89    38    95    1
    90    39    96    1
    91    39    97    1
    92    40    98    1
    93    40    99    1
    94    40   100    1
    95    41   101    1
    96    41   102    1
    97    41   103    1
    98    42    45    1
    99    42    46    1
   100    42   104    1
   101    43   107    1
   102    43   108    1
   103    43   110    1
   104    44   105    1
   105    44   106    1
   106    44   109    1
   107    45    48    1
   108    45   111    1
   109    46   112    1
   110    46   113    1
   111    46   114    1
   112    47    49    1
   113    47   115    1
   114    48    51    1
   115    48   116    1
   116    48   117    1
   117    49    50    1
   118    49   119    1
   119    50    53    1
   120    50   120    1
   121    51    54    2
   122    51   121    1
   123    52    53    1
   124    52    55    1
   125    52   122    1
   126    53   123    1
   127    54    56    1
   128    54    57    1
   129    55   125    1
   130    55   126    1
   131    55   127    1
   132    56   129    1
   133    56   130    1
   134    57   131    1
   135    57   132    1
   136    57   133    1
   137    58    59    1
   138    58   134    1
   139    59    60    1
   140    59   135    1
   141    60    62    1
   142    60   137    1
   143    61    62    1
   144    61    63    1
   145    61   138    1
   146    62   139    1
   147    63   140    1
   148    63   141    1
   149    64    65    1
   150    64   143    1
   151    65    66    1
   152    65   145    1
   153    66    68    1
   154    66   146    1
   155    67    68    1
   156    67    71    1
   157    67   147    1
   158    68   148    1
   159    69    70    1
   160    69   149    1
   161    70    72    1
   162    70   151    1
   163    71   152    1
   164    71   153    1
   165    71   154    1
   166    72    74    1
   167    72   157    1
   168    73    74    1
   169    73    75    1
   170    73   158    1
   171    74   159    1
   172    75   161    1
   173    75   162    1
