@<TRIPOS>MOLECULE
IMPHY014333
 51 55 0 0 0
SMALL
GASTEIGER

@<TRIPOS>ATOM
      1 O           2.7897    1.4712    0.0000 O.2     1  UNL1       -0.4987
      2 O           6.3027   -1.3300    0.0000 O.2     1  UNL1       -0.2742
      3 O           3.6704   -1.9494    0.0000 O.2     1  UNL1       -0.2926
      4 O          11.6049   -1.2500    0.0000 O.3     1  UNL1       -0.4951
      5 N           5.8109    2.2488    0.0000 N.3     1  UNL1       -0.3088
      6 N           8.0240   -1.7912    0.0000 N.am    1  UNL1       -0.2733
      7 C           7.6876   -0.2085    0.0000 C.3     1  UNL1        0.0907
      8 C           6.2887    0.3003    0.0000 C.3     1  UNL1        0.0265
      9 C           6.5475    1.2662    0.0000 C.3     1  UNL1        0.0157
     10 C           4.5143    0.9551    0.0000 C.3     1  UNL1        0.0157
     11 C           7.9464    0.7574    0.0000 C.3     1  UNL1       -0.0176
     12 C           4.2386   -0.0062    0.0000 C.3     1  UNL1       -0.0009
     13 C           5.0677   -0.5654    0.0000 C.3     1  UNL1       -0.0288
     14 C           8.6821   -0.3131    0.0000 C.ar    1  UNL1       -0.0093
     15 C           7.2809   -1.1221    0.0000 C.2     1  UNL1        0.2317
     16 C           3.8023    1.7154    0.0000 C.3     1  UNL1        0.0935
     17 C           3.2319   -0.2737    0.0000 C.2     1  UNL1        0.0324
     18 C           8.8900   -1.2912    0.0000 C.ar    1  UNL1        0.0436
     19 C           9.4454    0.3958    0.0000 C.ar    1  UNL1       -0.0523
     20 C           2.5026    0.4699    0.0000 C.2     1  UNL1        0.0912
     21 C           9.8756   -1.6283    0.0000 C.ar    1  UNL1        0.0018
     22 C           2.9674   -1.2381    0.0000 C.2     1  UNL1        0.1593
     23 C           7.9195   -2.7858    0.0000 C.3     1  UNL1        0.0083
     24 C          10.4385    0.0815    0.0000 C.ar    1  UNL1       -0.0196
     25 C          10.6551   -0.9373    0.0000 C.ar    1  UNL1        0.1219
     26 C           2.0000   -1.4912    0.0000 C.3     1  UNL1       -0.0016
     27 C          12.3506   -0.5838    0.0000 C.3     1  UNL1        0.0788
     28 H           6.0687   -0.5208    0.0000 H       1  UNL1        0.0474
     29 H           6.7675    2.0872    0.0000 H       1  UNL1        0.0465
     30 H           4.7486    1.7721    0.0000 H       1  UNL1        0.0355
     31 H           8.5404    0.5796    0.0000 H       1  UNL1        0.0294
     32 H           8.1414    1.3459    0.0000 H       1  UNL1        0.0294
     33 H           4.0043   -0.8233    0.0000 H       1  UNL1        0.0356
     34 H           4.6618   -1.0341    0.0000 H       1  UNL1        0.0287
     35 H           5.4843   -1.0245    0.0000 H       1  UNL1        0.0287
     36 H           5.5009    2.7858    0.0000 H       1  UNL1        0.1225
     37 H           4.3207    2.0555    0.0000 H       1  UNL1        0.0700
     38 H           3.5560    2.2844    0.0000 H       1  UNL1        0.0700
     39 H           9.3095    1.0007    0.0000 H       1  UNL1        0.0622
     40 H           1.9016    0.3176    0.0000 H       1  UNL1        0.1027
     41 H           9.9975   -2.2362    0.0000 H       1  UNL1        0.0673
     42 H           7.3029   -2.7209    0.0000 H       1  UNL1        0.0433
     43 H           7.8547   -3.4024    0.0000 H       1  UNL1        0.0433
     44 H           8.5361   -2.8506    0.0000 H       1  UNL1        0.0433
     45 H          10.8976    0.4982    0.0000 H       1  UNL1        0.0654
     46 H           1.8431   -0.8914    0.0000 H       1  UNL1        0.0309
     47 H           1.4002   -1.6482    0.0000 H       1  UNL1        0.0309
     48 H           2.1569   -2.0911    0.0000 H       1  UNL1        0.0309
     49 H          12.7637   -1.0461    0.0000 H       1  UNL1        0.0660
     50 H          12.8130   -0.1707    0.0000 H       1  UNL1        0.0660
     51 H          11.9376   -0.1214    0.0000 H       1  UNL1        0.0660
@<TRIPOS>BOND
     1     1    16    1
     2     1    20    1
     3     2    15    2
     4     3    22    2
     5     4    25    1
     6     4    27    1
     7     5     8    1
     8     5     9    1
     9     5    36    1
    10     6    15   am
    11     6    18    1
    12     6    23    1
    13     7     8    1
    14     7    11    1
    15     7    14    1
    16     7    15    1
    17     8    13    1
    18     8    28    1
    19     9    10    1
    20     9    11    1
    21     9    29    1
    22    10    12    1
    23    10    16    1
    24    10    30    1
    25    11    31    1
    26    11    32    1
    27    12    13    1
    28    12    17    1
    29    12    33    1
    30    13    34    1
    31    13    35    1
    32    14    18   ar
    33    14    19   ar
    34    16    37    1
    35    16    38    1
    36    17    20    2
    37    17    22    1
    38    18    21   ar
    39    19    24   ar
    40    19    39    1
    41    20    40    1
    42    21    25   ar
    43    21    41    1
    44    22    26    1
    45    23    42    1
    46    23    43    1
    47    23    44    1
    48    24    25   ar
    49    24    45    1
    50    26    46    1
    51    26    47    1
    52    26    48    1
    53    27    49    1
    54    27    50    1
    55    27    51    1
