@<TRIPOS>MOLECULE
IMPHY002169
 38 40 0 0 0
SMALL
GASTEIGER

@<TRIPOS>ATOM
      1 O           2.8658   -3.1483    0.0000 O.3     1  UNL1       -0.3539
      2 O           5.3351   -0.4808    0.0000 O.3     1  UNL1       -0.4531
      3 O           4.5981   -4.1479    0.0000 O.3     1  UNL1       -0.3921
      4 O           2.0000   -0.6479    0.0000 O.2     1  UNL1       -0.2894
      5 O           5.4300    1.2930    0.0000 O.2     1  UNL1       -0.2453
      6 C           3.7320   -2.6479    0.0000 C.3     1  UNL1        0.1302
      7 C           2.8660   -2.1479    0.0000 C.3     1  UNL1        0.1527
      8 C           4.5981   -2.1479    0.0000 C.3     1  UNL1        0.0230
      9 C           4.5981   -1.1479    0.0000 C.3     1  UNL1        0.1349
     10 C           2.8660   -1.1479    0.0000 C.2     1  UNL1        0.1946
     11 C           3.7320   -0.6479    0.0000 C.2     1  UNL1        0.0479
     12 C           4.5981   -3.1479    0.0000 C.3     1  UNL1        0.0763
     13 C           3.9412    0.3239    0.0000 C.2     1  UNL1        0.0469
     14 C           4.9300    0.4270    0.0000 C.2     1  UNL1        0.3362
     15 C           3.2734    1.0682    0.0000 C.3     1  UNL1       -0.0170
     16 C           3.5841    2.0188    0.0000 C.3     1  UNL1       -0.0303
     17 C           2.9162    2.7631    0.0000 C.2     1  UNL1       -0.0850
     18 C           3.2269    3.7136    0.0000 C.2     1  UNL1       -0.0796
     19 C           2.5590    4.4579    0.0000 C.3     1  UNL1       -0.0440
     20 C           4.2054    3.9198    0.0000 C.3     1  UNL1       -0.0440
     21 H           2.0160   -2.1478    0.0000 H       1  UNL1        0.0709
     22 H           4.8101   -2.7305    0.0000 H       1  UNL1        0.0334
     23 H           5.2087   -2.0402    0.0000 H       1  UNL1        0.0334
     24 H           5.3750   -1.4926    0.0000 H       1  UNL1        0.0787
     25 H           5.2087   -3.2555    0.0000 H       1  UNL1        0.0587
     26 H           4.8101   -2.5653    0.0000 H       1  UNL1        0.0587
     27 H           2.7265    1.3603    0.0000 H       1  UNL1        0.0318
     28 H           2.8909    0.5803    0.0000 H       1  UNL1        0.0318
     29 H           5.1350   -4.4579    0.0000 H       1  UNL1        0.2095
     30 H           4.1310    1.7267    0.0000 H       1  UNL1        0.0311
     31 H           3.9666    2.5067    0.0000 H       1  UNL1        0.0311
     32 H           2.3096    2.6352    0.0000 H       1  UNL1        0.0572
     33 H           4.3332    3.3131    0.0000 H       1  UNL1        0.0274
     34 H           4.8121    4.0476    0.0000 H       1  UNL1        0.0274
     35 H           3.0205    4.8719    0.0000 H       1  UNL1        0.0274
     36 H           2.1450    4.9194    0.0000 H       1  UNL1        0.0274
     37 H           2.0976    4.0438    0.0000 H       1  UNL1        0.0274
     38 H           4.0775    4.5265    0.0000 H       1  UNL1        0.0274
@<TRIPOS>BOND
     1     1     6    1
     2     1     7    1
     3     2     9    1
     4     2    14    1
     5     3    12    1
     6     3    29    1
     7     4    10    2
     8     5    14    2
     9     6     7    1
    10     6     8    1
    11     6    12    1
    12     7    10    1
    13     7    21    1
    14     8     9    1
    15     8    22    1
    16     8    23    1
    17     9    11    1
    18     9    24    1
    19    10    11    1
    20    11    13    2
    21    12    25    1
    22    12    26    1
    23    13    14    1
    24    13    15    1
    25    15    16    1
    26    15    27    1
    27    15    28    1
    28    16    17    1
    29    16    30    1
    30    16    31    1
    31    17    18    2
    32    17    32    1
    33    18    19    1
    34    18    20    1
    35    19    35    1
    36    19    36    1
    37    19    37    1
    38    20    33    1
    39    20    34    1
    40    20    38    1
