@<TRIPOS>MOLECULE
IMPHY001523
 48 50 0 0 0
SMALL
GASTEIGER

@<TRIPOS>ATOM
      1 O           3.7127    0.2775    0.0000 O.3     1  UNL1       -0.4592
      2 O           6.2527   -0.2113    0.0000 O.3     1  UNL1       -0.4584
      3 O           5.4061   -2.6778    0.0000 O.3     1  UNL1       -0.3803
      4 O           2.0000    0.2887    0.0000 O.2     1  UNL1       -0.2505
      5 O           7.1188   -1.6890    0.0000 O.2     1  UNL1       -0.2479
      6 N           4.5594    2.7217    0.0000 N.3     1  UNL1       -0.2886
      7 C           4.5594    1.7440    0.0000 C.3     1  UNL1        0.0723
      8 C           3.7127    1.2552    0.0000 C.3     1  UNL1        0.1235
      9 C           3.0181    2.1840    0.0000 C.3     1  UNL1       -0.0010
     10 C           3.5395    2.9661    0.0000 C.3     1  UNL1        0.0033
     11 C           5.4061    1.2552    0.0000 C.2     1  UNL1       -0.0148
     12 C           5.4949    2.9878    0.0000 C.3     1  UNL1        0.0182
     13 C           6.1032    2.1840    0.0000 C.2     1  UNL1       -0.0660
     14 C           3.7127   -1.6778    0.0000 C.3     1  UNL1       -0.0258
     15 C           2.8660   -1.1890    0.0000 C.3     1  UNL1        0.0565
     16 C           4.5594   -1.1890    0.0000 C.3     1  UNL1       -0.0040
     17 C           5.4061    0.2775    0.0000 C.3     1  UNL1        0.1153
     18 C           2.8660   -0.2113    0.0000 C.2     1  UNL1        0.3105
     19 C           5.4061   -1.6778    0.0000 C.3     1  UNL1        0.1544
     20 C           3.7127   -2.6778    0.0000 C.3     1  UNL1       -0.0613
     21 C           2.0000   -1.6890    0.0000 C.3     1  UNL1       -0.0520
     22 C           4.5594   -0.1890    0.0000 C.3     1  UNL1       -0.0593
     23 C           6.2527   -1.1890    0.0000 C.2     1  UNL1        0.3366
     24 H           4.5594    0.8940    0.0000 H       1  UNL1        0.0547
     25 H           2.9061    0.9870    0.0000 H       1  UNL1        0.0753
     26 H           2.5446    2.5841    0.0000 H       1  UNL1        0.0314
     27 H           2.5669    1.7588    0.0000 H       1  UNL1        0.0314
     28 H           3.7538    3.5479    0.0000 H       1  UNL1        0.0428
     29 H           2.9869    3.2471    0.0000 H       1  UNL1        0.0428
     30 H           6.0316    3.2982    0.0000 H       1  UNL1        0.0470
     31 H           5.2530    3.5587    0.0000 H       1  UNL1        0.0470
     32 H           6.7232    2.1852    0.0000 H       1  UNL1        0.0586
     33 H           2.9766   -2.1028    0.0000 H       1  UNL1        0.0309
     34 H           2.1299   -0.7640    0.0000 H       1  UNL1        0.0413
     35 H           5.2956   -0.7640    0.0000 H       1  UNL1        0.0331
     36 H           4.7955    0.3852    0.0000 H       1  UNL1        0.0746
     37 H           5.1940   -0.3051    0.0000 H       1  UNL1        0.0746
     38 H           6.1422   -2.1028    0.0000 H       1  UNL1        0.0713
     39 H           3.0927   -2.6778    0.0000 H       1  UNL1        0.0233
     40 H           3.7127   -3.2978    0.0000 H       1  UNL1        0.0233
     41 H           4.3327   -2.6778    0.0000 H       1  UNL1        0.0233
     42 H           1.6900   -1.1520    0.0000 H       1  UNL1        0.0238
     43 H           1.4631   -1.9990    0.0000 H       1  UNL1        0.0238
     44 H           2.3100   -2.2259    0.0000 H       1  UNL1        0.0238
     45 H           5.1794   -0.1890    0.0000 H       1  UNL1        0.0233
     46 H           4.5594    0.4310    0.0000 H       1  UNL1        0.0233
     47 H           3.9394   -0.1890    0.0000 H       1  UNL1        0.0233
     48 H           5.9430   -2.9878    0.0000 H       1  UNL1        0.2105
@<TRIPOS>BOND
     1     1     8    1
     2     1    18    1
     3     2    17    1
     4     2    23    1
     5     3    19    1
     6     3    48    1
     7     4    18    2
     8     5    23    2
     9     6     7    1
    10     6    10    1
    11     6    12    1
    12     7     8    1
    13     7    11    1
    14     7    24    1
    15     8     9    1
    16     8    25    1
    17     9    10    1
    18     9    26    1
    19     9    27    1
    20    10    28    1
    21    10    29    1
    22    11    13    2
    23    11    17    1
    24    12    13    1
    25    12    30    1
    26    12    31    1
    27    13    32    1
    28    14    15    1
    29    14    16    1
    30    14    20    1
    31    14    33    1
    32    15    18    1
    33    15    21    1
    34    15    34    1
    35    16    19    1
    36    16    22    1
    37    16    35    1
    38    17    36    1
    39    17    37    1
    40    19    23    1
    41    19    38    1
    42    20    39    1
    43    20    40    1
    44    20    41    1
    45    21    42    1
    46    21    43    1
    47    21    44    1
    48    22    45    1
    49    22    46    1
    50    22    47    1
