@<TRIPOS>MOLECULE
IMPHY004546
 64 69 0 0 0
SMALL
GASTEIGER

@<TRIPOS>ATOM
      1 O           6.3580    2.0966    0.0000 O.2     1  UNL1       -0.4537
      2 O           6.3301   -1.8687    0.0000 O.2     1  UNL1       -0.4544
      3 O           2.8660    1.1313    0.0000 O.3     1  UNL1       -0.4945
      4 O           2.8660    2.1313    0.0000 O.3     1  UNL1       -0.5059
      5 O           4.5981    5.1313    0.0000 O.3     1  UNL1       -0.5058
      6 O           6.3465    5.1659    0.0000 O.2     1  UNL1       -0.2869
      7 O           8.0743   -4.9380    0.0000 O.3     1  UNL1       -0.4949
      8 O           9.8324   -1.8656    0.0000 O.3     1  UNL1       -0.5058
      9 O           8.9282   -0.3687    0.0000 O.2     1  UNL1       -0.2869
     10 O          10.7205    0.5971    0.0000 O.3     1  UNL1       -0.5068
     11 C           4.5981    2.1313    0.0000 C.ar    1  UNL1        0.0702
     12 C           4.5981    1.1313    0.0000 C.ar    1  UNL1        0.0315
     13 C           5.4641    2.6313    0.0000 C.ar    1  UNL1        0.1541
     14 C           5.4641    3.6313    0.0000 C.ar    1  UNL1        0.1061
     15 C           5.4641   -0.3687    0.0000 C.ar    1  UNL1        0.0182
     16 C           5.4641    0.6313    0.0000 C.ar    1  UNL1       -0.0396
     17 C           3.7320    2.6313    0.0000 C.ar    1  UNL1        0.1317
     18 C           3.7320    0.6313    0.0000 C.ar    1  UNL1        0.1280
     19 C           4.5981    4.1313    0.0000 C.ar    1  UNL1        0.1347
     20 C           6.3301   -0.8687    0.0000 C.ar    1  UNL1        0.1392
     21 C           3.7320    3.6313    0.0000 C.ar    1  UNL1        0.0229
     22 C           6.3580    4.1660    0.0000 C.ar    1  UNL1        0.1966
     23 C           7.2641    2.6105    0.0000 C.ar    1  UNL1        0.1393
     24 C           4.5981   -0.8687    0.0000 C.ar    1  UNL1       -0.0476
     25 C           3.7320   -0.3687    0.0000 C.ar    1  UNL1       -0.0187
     26 C           7.2641    3.6521    0.0000 C.ar    1  UNL1        0.0288
     27 C           8.0622   -1.8687    0.0000 C.ar    1  UNL1        0.1055
     28 C           7.1962   -2.3687    0.0000 C.ar    1  UNL1        0.1462
     29 C           7.1962   -0.3687    0.0000 C.ar    1  UNL1        0.0288
     30 C           8.1282    2.1071    0.0000 C.ar    1  UNL1        0.0176
     31 C           8.0622   -0.8687    0.0000 C.ar    1  UNL1        0.1966
     32 C           8.9722   -2.3756    0.0000 C.ar    1  UNL1        0.1347
     33 C           7.1801   -3.4102    0.0000 C.ar    1  UNL1        0.0233
     34 C           8.0781   -3.9380    0.0000 C.ar    1  UNL1        0.1271
     35 C           8.9802   -3.4172    0.0000 C.ar    1  UNL1        0.0225
     36 C           8.1244    1.1072    0.0000 C.ar    1  UNL1       -0.0476
     37 C           8.9962    2.6038    0.0000 C.ar    1  UNL1       -0.0476
     38 C           2.0000    0.6313    0.0000 C.3     1  UNL1        0.0788
     39 C           8.9884    0.6038    0.0000 C.ar    1  UNL1       -0.0195
     40 C           9.8602    2.1005    0.0000 C.ar    1  UNL1       -0.0195
     41 C           9.8564    1.1005    0.0000 C.ar    1  UNL1        0.1169
     42 C           8.9384   -5.4413    0.0000 C.3     1  UNL1        0.0788
     43 H           6.0010    0.9413    0.0000 H       1  UNL1        0.0632
     44 H           3.1951    3.9413    0.0000 H       1  UNL1        0.0691
     45 H           4.5981   -1.4887    0.0000 H       1  UNL1        0.0626
     46 H           3.1951   -0.6787    0.0000 H       1  UNL1        0.0654
     47 H           7.7998    3.9642    0.0000 H       1  UNL1        0.0693
     48 H           7.1962    0.2513    0.0000 H       1  UNL1        0.0693
     49 H           6.6396   -3.7140    0.0000 H       1  UNL1        0.0691
     50 H           9.5183   -3.7251    0.0000 H       1  UNL1        0.0691
     51 H           2.3291    2.4413    0.0000 H       1  UNL1        0.2922
     52 H           7.5862    0.7992    0.0000 H       1  UNL1        0.0626
     53 H           8.9985    3.2238    0.0000 H       1  UNL1        0.0626
     54 H           4.0611    5.4413    0.0000 H       1  UNL1        0.2922
     55 H           1.6900    1.1682    0.0000 H       1  UNL1        0.0660
     56 H           1.4631    0.3213    0.0000 H       1  UNL1        0.0660
     57 H           2.3100    0.0944    0.0000 H       1  UNL1        0.0660
     58 H           8.9860   -0.0162    0.0000 H       1  UNL1        0.0654
     59 H          10.3984    2.4084    0.0000 H       1  UNL1        0.0654
     60 H          10.3728   -2.1693    0.0000 H       1  UNL1        0.2922
     61 H           8.6263   -5.9770    0.0000 H       1  UNL1        0.0660
     62 H           9.4741   -5.7534    0.0000 H       1  UNL1        0.0660
     63 H           9.2504   -4.9056    0.0000 H       1  UNL1        0.0660
     64 H          11.2586    0.9051    0.0000 H       1  UNL1        0.2921
@<TRIPOS>BOND
     1     1    13   ar
     2     1    23   ar
     3     2    20   ar
     4     2    28   ar
     5     3    18    1
     6     3    38    1
     7     4    17    1
     8     4    51    1
     9     5    19    1
    10     5    54    1
    11     6    22    2
    12     7    34    1
    13     7    42    1
    14     8    32    1
    15     8    60    1
    16     9    31    2
    17    10    41    1
    18    10    64    1
    19    11    12    1
    20    11    13   ar
    21    11    17   ar
    22    12    16   ar
    23    12    18   ar
    24    13    14   ar
    25    14    19   ar
    26    14    22   ar
    27    15    16   ar
    28    15    20    1
    29    15    24   ar
    30    16    43    1
    31    17    21   ar
    32    18    25   ar
    33    19    21   ar
    34    20    29   ar
    35    21    44    1
    36    22    26   ar
    37    23    26   ar
    38    23    30    1
    39    24    25   ar
    40    24    45    1
    41    25    46    1
    42    26    47    1
    43    27    28   ar
    44    27    31   ar
    45    27    32   ar
    46    28    33   ar
    47    29    31   ar
    48    29    48    1
    49    30    36   ar
    50    30    37   ar
    51    32    35   ar
    52    33    34   ar
    53    33    49    1
    54    34    35   ar
    55    35    50    1
    56    36    39   ar
    57    36    52    1
    58    37    40   ar
    59    37    53    1
    60    38    55    1
    61    38    56    1
    62    38    57    1
    63    39    41   ar
    64    39    58    1
    65    40    41   ar
    66    40    59    1
    67    42    61    1
    68    42    62    1
    69    42    63    1
