@<TRIPOS>MOLECULE
IMPHY008397
 26 25 0 0 0
SMALL
GASTEIGER

@<TRIPOS>ATOM
      1 O           2.8660    0.7500    0.0000 O.3     1  UNL1       -0.4679
      2 O           3.7320   -0.7500    0.0000 O.2     1  UNL1       -0.2509
      3 C           6.3301    0.7500    0.0000 C.3     1  UNL1       -0.0526
      4 C           7.1962    0.2500    0.0000 C.3     1  UNL1       -0.0533
      5 C           5.4641    0.2500    0.0000 C.3     1  UNL1       -0.0430
      6 C           8.0622    0.7500    0.0000 C.3     1  UNL1       -0.0559
      7 C           4.5981    0.7500    0.0000 C.3     1  UNL1        0.0449
      8 C           8.9282    0.2500    0.0000 C.3     1  UNL1       -0.0653
      9 C           3.7320    0.2500    0.0000 C.2     1  UNL1        0.3068
     10 C           2.0000    0.2500    0.0000 C.3     1  UNL1        0.0817
     11 H           6.7287    1.2250    0.0000 H       1  UNL1        0.0265
     12 H           5.9316    1.2250    0.0000 H       1  UNL1        0.0265
     13 H           6.7976   -0.2249    0.0000 H       1  UNL1        0.0265
     14 H           7.5947   -0.2249    0.0000 H       1  UNL1        0.0265
     15 H           5.0656   -0.2249    0.0000 H       1  UNL1        0.0270
     16 H           5.8626   -0.2249    0.0000 H       1  UNL1        0.0270
     17 H           8.4607    1.2250    0.0000 H       1  UNL1        0.0263
     18 H           7.6636    1.2250    0.0000 H       1  UNL1        0.0263
     19 H           4.9966    1.2250    0.0000 H       1  UNL1        0.0377
     20 H           4.1996    1.2250    0.0000 H       1  UNL1        0.0377
     21 H           8.6182   -0.2869    0.0000 H       1  UNL1        0.0230
     22 H           9.4651   -0.0600    0.0000 H       1  UNL1        0.0230
     23 H           9.2382    0.7869    0.0000 H       1  UNL1        0.0230
     24 H           1.6900    0.7869    0.0000 H       1  UNL1        0.0661
     25 H           1.4631   -0.0600    0.0000 H       1  UNL1        0.0661
     26 H           2.3100   -0.2869    0.0000 H       1  UNL1        0.0661
@<TRIPOS>BOND
     1     1     9    1
     2     1    10    1
     3     2     9    2
     4     3     4    1
     5     3     5    1
     6     3    11    1
     7     3    12    1
     8     4     6    1
     9     4    13    1
    10     4    14    1
    11     5     7    1
    12     5    15    1
    13     5    16    1
    14     6     8    1
    15     6    17    1
    16     6    18    1
    17     7     9    1
    18     7    19    1
    19     7    20    1
    20     8    21    1
    21     8    22    1
    22     8    23    1
    23    10    24    1
    24    10    25    1
    25    10    26    1
