@<TRIPOS>MOLECULE
IMPHY016523
 50 50 0 0 0
SMALL
GASTEIGER

@<TRIPOS>ATOM
      1 C           3.0000   -3.0000    0.0000 C.3     1  UNL1       -0.0099
      2 C           3.0000   -4.0000    0.0000 C.3     1  UNL1       -0.0436
      3 C           3.8660   -4.5000    0.0000 C.3     1  UNL1       -0.0486
      4 C           3.8660   -2.5000    0.0000 C.2     1  UNL1       -0.0427
      5 C           4.7320   -4.0000    0.0000 C.3     1  UNL1       -0.0314
      6 C           4.7320   -3.0000    0.0000 C.2     1  UNL1       -0.0689
      7 C           2.0000   -3.0000    0.0000 C.3     1  UNL1       -0.0558
      8 C           2.5000   -2.1340    0.0000 C.3     1  UNL1       -0.0558
      9 C           3.8660   -1.5000    0.0000 C.2     1  UNL1       -0.0579
     10 C           5.5981   -2.5000    0.0000 C.3     1  UNL1       -0.0432
     11 C           4.7320   -1.0000    0.0000 C.2     1  UNL1       -0.0586
     12 C           4.7320    0.0000    0.0000 C.2     1  UNL1       -0.0504
     13 C           3.8660    0.5000    0.0000 C.3     1  UNL1       -0.0397
     14 C           5.5981    0.5000    0.0000 C.2     1  UNL1       -0.0588
     15 C           5.5981    1.5000    0.0000 C.2     1  UNL1       -0.0613
     16 C           6.4641    2.0000    0.0000 C.2     1  UNL1       -0.0591
     17 C           6.4641    3.0000    0.0000 C.2     1  UNL1       -0.0546
     18 C           5.5981    3.5000    0.0000 C.3     1  UNL1       -0.0400
     19 C           7.3301    3.5000    0.0000 C.2     1  UNL1       -0.0842
     20 C           7.3301    4.5000    0.0000 C.3     1  UNL1       -0.0463
     21 H           2.3894   -3.8923    0.0000 H       1  UNL1        0.0274
     22 H           2.7880   -4.5826    0.0000 H       1  UNL1        0.0274
     23 H           3.4675   -4.9750    0.0000 H       1  UNL1        0.0269
     24 H           4.2646   -4.9750    0.0000 H       1  UNL1        0.0269
     25 H           4.9441   -4.5826    0.0000 H       1  UNL1        0.0310
     26 H           5.3426   -3.8923    0.0000 H       1  UNL1        0.0310
     27 H           2.0000   -2.3800    0.0000 H       1  UNL1        0.0238
     28 H           1.3800   -3.0000    0.0000 H       1  UNL1        0.0238
     29 H           2.0000   -3.6200    0.0000 H       1  UNL1        0.0238
     30 H           3.0369   -1.8240    0.0000 H       1  UNL1        0.0238
     31 H           2.1900   -1.5970    0.0000 H       1  UNL1        0.0238
     32 H           1.9631   -2.4440    0.0000 H       1  UNL1        0.0238
     33 H           3.3291   -1.1900    0.0000 H       1  UNL1        0.0621
     34 H           5.9081   -3.0369    0.0000 H       1  UNL1        0.0275
     35 H           6.1350   -2.1900    0.0000 H       1  UNL1        0.0275
     36 H           5.2881   -1.9631    0.0000 H       1  UNL1        0.0275
     37 H           5.2690   -1.3100    0.0000 H       1  UNL1        0.0620
     38 H           4.1760    1.0369    0.0000 H       1  UNL1        0.0278
     39 H           3.3291    0.8100    0.0000 H       1  UNL1        0.0278
     40 H           3.5560   -0.0369    0.0000 H       1  UNL1        0.0278
     41 H           6.1350    0.1900    0.0000 H       1  UNL1        0.0620
     42 H           5.0611    1.8100    0.0000 H       1  UNL1        0.0618
     43 H           7.0010    1.6900    0.0000 H       1  UNL1        0.0620
     44 H           5.9081    4.0369    0.0000 H       1  UNL1        0.0277
     45 H           5.0611    3.8100    0.0000 H       1  UNL1        0.0277
     46 H           5.2881    2.9631    0.0000 H       1  UNL1        0.0277
     47 H           7.8671    3.1900    0.0000 H       1  UNL1        0.0572
     48 H           7.9501    4.5000    0.0000 H       1  UNL1        0.0272
     49 H           7.3301    5.1200    0.0000 H       1  UNL1        0.0272
     50 H           6.7101    4.5000    0.0000 H       1  UNL1        0.0272
@<TRIPOS>BOND
     1     1     2    1
     2     1     4    1
     3     1     7    1
     4     1     8    1
     5     2     3    1
     6     2    21    1
     7     2    22    1
     8     3     5    1
     9     3    23    1
    10     3    24    1
    11     4     6    2
    12     4     9    1
    13     5     6    1
    14     5    25    1
    15     5    26    1
    16     6    10    1
    17     7    27    1
    18     7    28    1
    19     7    29    1
    20     8    30    1
    21     8    31    1
    22     8    32    1
    23     9    11    2
    24     9    33    1
    25    10    34    1
    26    10    35    1
    27    10    36    1
    28    11    12    1
    29    11    37    1
    30    12    13    1
    31    12    14    2
    32    13    38    1
    33    13    39    1
    34    13    40    1
    35    14    15    1
    36    14    41    1
    37    15    16    2
    38    15    42    1
    39    16    17    1
    40    16    43    1
    41    17    18    1
    42    17    19    2
    43    18    44    1
    44    18    45    1
    45    18    46    1
    46    19    20    1
    47    19    47    1
    48    20    48    1
    49    20    49    1
    50    20    50    1
