@<TRIPOS>MOLECULE
IMPHY016910
 60 65 0 0 0
SMALL
GASTEIGER

@<TRIPOS>ATOM
      1 O           5.5301   -3.5000    0.0000 O.2     1  UNL1       -0.2864
      2 O           5.5301    3.5000    0.0000 O.2     1  UNL1       -0.2864
      3 O           7.2785    3.5346    0.0000 O.3     1  UNL1       -0.5060
      4 O           3.7817   -3.5346    0.0000 O.3     1  UNL1       -0.5060
      5 O           7.2785   -3.5346    0.0000 O.3     1  UNL1       -0.5059
      6 O           3.7817    3.5346    0.0000 O.3     1  UNL1       -0.5060
      7 O           9.0602   -0.4758    0.0000 O.3     1  UNL1       -0.5066
      8 O           9.9282    0.9725    0.0000 O.3     1  UNL1       -0.3904
      9 C           5.5301   -0.5000    0.0000 C.3     1  UNL1        0.0218
     10 C           5.5301    0.5000    0.0000 C.3     1  UNL1        0.0216
     11 C           6.3961    1.0000    0.0000 C.ar    1  UNL1       -0.0244
     12 C           4.6641   -1.0000    0.0000 C.ar    1  UNL1       -0.0245
     13 C           6.3961   -1.0000    0.0000 C.ar    1  UNL1       -0.0213
     14 C           4.6641    1.0000    0.0000 C.ar    1  UNL1       -0.0247
     15 C           4.6641   -2.0000    0.0000 C.ar    1  UNL1        0.0675
     16 C           6.3961    2.0000    0.0000 C.ar    1  UNL1        0.0675
     17 C           6.3961   -2.0000    0.0000 C.ar    1  UNL1        0.0677
     18 C           4.6641    2.0000    0.0000 C.ar    1  UNL1        0.0675
     19 C           5.5301   -2.5000    0.0000 C.2     1  UNL1        0.2007
     20 C           5.5301    2.5000    0.0000 C.2     1  UNL1        0.2007
     21 C           7.2901    0.4653    0.0000 C.ar    1  UNL1       -0.0517
     22 C           3.7702   -0.4653    0.0000 C.ar    1  UNL1       -0.0541
     23 C           7.2901   -0.4653    0.0000 C.ar    1  UNL1       -0.0155
     24 C           3.7702    0.4653    0.0000 C.ar    1  UNL1       -0.0571
     25 C           7.2901    2.5347    0.0000 C.ar    1  UNL1        0.1283
     26 C           3.7702   -2.5347    0.0000 C.ar    1  UNL1        0.1282
     27 C           7.2901   -2.5347    0.0000 C.ar    1  UNL1        0.1314
     28 C           8.1962    0.9792    0.0000 C.ar    1  UNL1       -0.0184
     29 C           3.7702    2.5347    0.0000 C.ar    1  UNL1        0.1279
     30 C           2.8641   -0.9792    0.0000 C.ar    1  UNL1       -0.0467
     31 C           8.1962    2.0208    0.0000 C.ar    1  UNL1       -0.0141
     32 C           8.1962   -0.9792    0.0000 C.ar    1  UNL1        0.1206
     33 C           2.8641   -2.0208    0.0000 C.ar    1  UNL1       -0.0165
     34 C           2.8641    0.9792    0.0000 C.ar    1  UNL1       -0.0580
     35 C           8.1962   -2.0208    0.0000 C.ar    1  UNL1        0.0220
     36 C           2.8641    2.0208    0.0000 C.ar    1  UNL1       -0.0194
     37 C           9.0602    0.4758    0.0000 C.3     1  UNL1        0.0694
     38 C           2.0000   -0.4758    0.0000 C.3     1  UNL1       -0.0396
     39 H           6.0671   -0.1900    0.0000 H       1  UNL1        0.0407
     40 H           4.9932    0.1900    0.0000 H       1  UNL1        0.0407
     41 H           7.2829   -0.1546    0.0000 H       1  UNL1        0.0624
     42 H           3.7773    0.1546    0.0000 H       1  UNL1        0.0623
     43 H           7.2829    0.1546    0.0000 H       1  UNL1        0.0657
     44 H           3.7773   -0.1546    0.0000 H       1  UNL1        0.0621
     45 H           8.7319    2.3329    0.0000 H       1  UNL1        0.0658
     46 H           2.3284   -2.3329    0.0000 H       1  UNL1        0.0657
     47 H           2.3284    0.6671    0.0000 H       1  UNL1        0.0619
     48 H           8.7319   -2.3329    0.0000 H       1  UNL1        0.0691
     49 H           2.3284    2.3329    0.0000 H       1  UNL1        0.0654
     50 H           8.6599    0.0024    0.0000 H       1  UNL1        0.0607
     51 H           9.4570   -0.0006    0.0000 H       1  UNL1        0.0607
     52 H           2.3121    0.0599    0.0000 H       1  UNL1        0.0278
     53 H           1.4643   -0.1638    0.0000 H       1  UNL1        0.0278
     54 H           1.6879   -1.0116    0.0000 H       1  UNL1        0.0278
     55 H           7.8118    3.8508    0.0000 H       1  UNL1        0.2922
     56 H           3.2484   -3.8508    0.0000 H       1  UNL1        0.2922
     57 H           7.8118   -3.8508    0.0000 H       1  UNL1        0.2922
     58 H           3.2484    3.8508    0.0000 H       1  UNL1        0.2922
     59 H           9.5984   -0.7838    0.0000 H       1  UNL1        0.2921
     60 H          10.4639    0.6604    0.0000 H       1  UNL1        0.2098
@<TRIPOS>BOND
     1     1    19    2
     2     2    20    2
     3     3    25    1
     4     3    55    1
     5     4    26    1
     6     4    56    1
     7     5    27    1
     8     5    57    1
     9     6    29    1
    10     6    58    1
    11     7    32    1
    12     7    59    1
    13     8    37    1
    14     8    60    1
    15     9    10    1
    16     9    12    1
    17     9    13    1
    18     9    39    1
    19    10    11    1
    20    10    14    1
    21    10    40    1
    22    11    16   ar
    23    11    21   ar
    24    12    15   ar
    25    12    22   ar
    26    13    17   ar
    27    13    23   ar
    28    14    18   ar
    29    14    24   ar
    30    15    19    1
    31    15    26   ar
    32    16    20    1
    33    16    25   ar
    34    17    19    1
    35    17    27   ar
    36    18    20    1
    37    18    29   ar
    38    21    28   ar
    39    21    41    1
    40    22    30   ar
    41    22    42    1
    42    23    32   ar
    43    23    43    1
    44    24    34   ar
    45    24    44    1
    46    25    31   ar
    47    26    33   ar
    48    27    35   ar
    49    28    31   ar
    50    28    37    1
    51    29    36   ar
    52    30    33   ar
    53    30    38    1
    54    31    45    1
    55    32    35   ar
    56    33    46    1
    57    34    36   ar
    58    34    47    1
    59    35    48    1
    60    36    49    1
    61    37    50    1
    62    37    51    1
    63    38    52    1
    64    38    53    1
    65    38    54    1
