@<TRIPOS>MOLECULE
IMPHY003055
 110 118 0 0 0
SMALL
GASTEIGER

@<TRIPOS>ATOM
      1 O           4.0851    2.8547    0.0000 O.3     1  UNL1       -0.3591
      2 O           4.6881    0.0515    0.0000 O.3     1  UNL1       -0.3166
      3 O           2.8571    0.5813    0.0000 O.3     1  UNL1       -0.3175
      4 O           3.3696   -1.5384    0.0000 O.3     1  UNL1       -0.3109
      5 O           6.9204    2.8984    0.0000 O.3     1  UNL1       -0.3818
      6 O           6.5082    3.6063    0.0000 O.3     1  UNL1       -0.3858
      7 O           8.2026    2.8676    0.0000 O.3     1  UNL1       -0.4546
      8 O           5.3325    4.4180    0.0000 O.3     1  UNL1       -0.3920
      9 O           6.5731   -2.0933    0.0000 O.3     1  UNL1       -0.4608
     10 O           4.6088   -2.7276    0.0000 O.3     1  UNL1       -0.3838
     11 O           9.6879    1.9766    0.0000 O.2     1  UNL1       -0.2449
     12 O           5.3473   -3.3170    0.0000 O.2     1  UNL1       -0.2450
     13 C           5.5744    0.5147    0.0000 C.3     1  UNL1        0.0947
     14 C           4.6734    0.9486    0.0000 C.3     1  UNL1        0.0476
     15 C           6.4753    0.9486    0.0000 C.3     1  UNL1        0.0274
     16 C           4.4509    1.9235    0.0000 C.3     1  UNL1        0.1012
     17 C           6.6979    1.9235    0.0000 C.3     1  UNL1        0.1371
     18 C           5.0744    2.7053    0.0000 C.3     1  UNL1        0.1476
     19 C           3.8038    0.3751    0.0000 C.3     1  UNL1        0.1051
     20 C           7.3300    0.4409    0.0000 C.3     1  UNL1       -0.0241
     21 C           5.6682   -0.5227    0.0000 C.3     1  UNL1        0.0264
     22 C           6.0744    2.7053    0.0000 C.3     1  UNL1        0.1211
     23 C           3.8736   -0.6642    0.0000 C.3     1  UNL1        0.1226
     24 C           7.6882    2.0100    0.0000 C.3     1  UNL1        0.1376
     25 C           8.0781    1.0956    0.0000 C.3     1  UNL1       -0.0003
     26 C           4.8121   -1.1161    0.0000 C.3     1  UNL1       -0.0086
     27 C           4.1003   -0.8424    0.0000 C.3     1  UNL1        0.3147
     28 C           8.1743   -0.0950    0.0000 C.3     1  UNL1       -0.0402
     29 C           5.6979    3.4871    0.0000 C.3     1  UNL1        0.0782
     30 C           6.4869   -1.0970    0.0000 C.3     1  UNL1        0.0983
     31 C           2.9046   -0.9109    0.0000 C.2     1  UNL1       -0.0457
     32 C           4.5635   -1.7286    0.0000 C.3     1  UNL1        0.1366
     33 C           9.0530    0.8731    0.0000 C.3     1  UNL1       -0.0587
     34 C           8.1323   -1.0941    0.0000 C.3     1  UNL1       -0.0502
     35 C           9.1285   -0.3941    0.0000 C.3     1  UNL1       -0.0621
     36 C           5.5626   -1.7706    0.0000 C.3     1  UNL1       -0.0192
     37 C           2.6337   -1.8736    0.0000 C.3     1  UNL1       -0.0413
     38 C           8.5955   -1.9804    0.0000 C.3     1  UNL1       -0.0528
     39 C           2.2063   -0.1951    0.0000 C.2     1  UNL1       -0.0969
     40 C           9.2024    2.8509    0.0000 C.2     1  UNL1        0.3395
     41 C           6.2394   -2.5068    0.0000 C.3     1  UNL1       -0.0505
     42 C           8.0596   -2.8246    0.0000 C.3     1  UNL1       -0.0530
     43 C           7.2153   -2.2887    0.0000 C.3     1  UNL1       -0.0530
     44 C           6.3134   -3.0590    0.0000 C.2     1  UNL1        0.3392
     45 C           9.7168    3.7084    0.0000 C.ar    1  UNL1        0.0590
     46 C           7.0197   -3.7668    0.0000 C.ar    1  UNL1        0.0590
     47 C           9.2313    4.5827    0.0000 C.ar    1  UNL1       -0.0478
     48 C          10.7167    3.6918    0.0000 C.ar    1  UNL1       -0.0478
     49 C           7.9859   -3.5089    0.0000 C.ar    1  UNL1       -0.0478
     50 C           6.7601   -4.7325    0.0000 C.ar    1  UNL1       -0.0478
     51 C           9.7457    5.4403    0.0000 C.ar    1  UNL1       -0.0610
     52 C          11.2310    4.5493    0.0000 C.ar    1  UNL1       -0.0610
     53 C          10.7456    5.4236    0.0000 C.ar    1  UNL1       -0.0617
     54 C           8.6924   -4.2167    0.0000 C.ar    1  UNL1       -0.0610
     55 C           7.4664   -5.4403    0.0000 C.ar    1  UNL1       -0.0610
     56 C           8.4327   -5.1823    0.0000 C.ar    1  UNL1       -0.0617
     57 H           3.9076    1.3174    0.0000 H       1  UNL1        0.0381
     58 H           6.2862    0.1199    0.0000 H       1  UNL1        0.0362
     59 H           3.6387    1.6728    0.0000 H       1  UNL1        0.0631
     60 H           3.0942   -0.0928    0.0000 H       1  UNL1        0.0635
     61 H           6.6904   -0.1189    0.0000 H       1  UNL1        0.0312
     62 H           6.2048   -0.2122    0.0000 H       1  UNL1        0.0363
     63 H           5.7445    3.2303    0.0000 H       1  UNL1        0.0654
     64 H           8.3067    1.9675    0.0000 H       1  UNL1        0.0767
     65 H           8.4756    1.5714    0.0000 H       1  UNL1        0.0338
     66 H           5.2473   -1.5577    0.0000 H       1  UNL1        0.0302
     67 H           4.4515   -1.6204    0.0000 H       1  UNL1        0.0302
     68 H           8.6307    0.3246    0.0000 H       1  UNL1        0.0301
     69 H           6.2269    3.8104    0.0000 H       1  UNL1        0.0588
     70 H           6.1081    3.0223    0.0000 H       1  UNL1        0.0588
     71 H           6.7163   -0.5210    0.0000 H       1  UNL1        0.0701
     72 H           7.1002   -1.1874    0.0000 H       1  UNL1        0.0701
     73 H           7.5128    3.0812    0.0000 H       1  UNL1        0.2104
     74 H           4.1071   -2.1483    0.0000 H       1  UNL1        0.0674
     75 H           9.1910    1.4775    0.0000 H       1  UNL1        0.0234
     76 H           9.6575    0.7351    0.0000 H       1  UNL1        0.0234
     77 H           8.9150    0.2686    0.0000 H       1  UNL1        0.0234
     78 H           6.1590    4.1186    0.0000 H       1  UNL1        0.2100
     79 H           7.7142   -1.5519    0.0000 H       1  UNL1        0.0268
     80 H           8.7374   -0.9589    0.0000 H       1  UNL1        0.0268
     81 H           9.3140    0.1975    0.0000 H       1  UNL1        0.0233
     82 H           9.7201   -0.5796    0.0000 H       1  UNL1        0.0233
     83 H           8.9430   -0.9858    0.0000 H       1  UNL1        0.0233
     84 H           5.4274   -1.1655    0.0000 H       1  UNL1        0.0293
     85 H           6.1121   -1.4834    0.0000 H       1  UNL1        0.0293
     86 H           4.7194    4.5104    0.0000 H       1  UNL1        0.2095
     87 H           3.2306   -2.0415    0.0000 H       1  UNL1        0.0275
     88 H           2.4658   -2.4704    0.0000 H       1  UNL1        0.0275
     89 H           2.0369   -1.7056    0.0000 H       1  UNL1        0.0275
     90 H           9.0868   -1.6021    0.0000 H       1  UNL1        0.0265
     91 H           9.0533   -2.3985    0.0000 H       1  UNL1        0.0265
     92 H           1.6055   -0.3480    0.0000 H       1  UNL1        0.0535
     93 H           2.3743    0.4018    0.0000 H       1  UNL1        0.0535
     94 H           4.0864   -3.0616    0.0000 H       1  UNL1        0.2101
     95 H           6.4776   -3.0792    0.0000 H       1  UNL1        0.0266
     96 H           5.7171   -2.8408    0.0000 H       1  UNL1        0.0266
     97 H           8.5831   -3.1569    0.0000 H       1  UNL1        0.0265
     98 H           7.7274   -3.3481    0.0000 H       1  UNL1        0.0265
     99 H           6.9282   -1.7393    0.0000 H       1  UNL1        0.0265
    100 H           7.6718   -1.8691    0.0000 H       1  UNL1        0.0265
    101 H           8.6114    4.5930    0.0000 H       1  UNL1        0.0626
    102 H          11.0177    3.1497    0.0000 H       1  UNL1        0.0626
    103 H           8.1469   -2.9102    0.0000 H       1  UNL1        0.0626
    104 H           6.1611   -4.8924    0.0000 H       1  UNL1        0.0626
    105 H           9.4447    5.9823    0.0000 H       1  UNL1        0.0618
    106 H          11.8510    4.5390    0.0000 H       1  UNL1        0.0618
    107 H          11.0645    5.9553    0.0000 H       1  UNL1        0.0618
    108 H           9.2914   -4.0568    0.0000 H       1  UNL1        0.0618
    109 H           7.3054   -6.0390    0.0000 H       1  UNL1        0.0618
    110 H           8.8707   -5.6211    0.0000 H       1  UNL1        0.0618
@<TRIPOS>BOND
     1     1    16    1
     2     1    18    1
     3    13     2    1
     4     2    27    1
     5     3    19    1
     6    27     3    1
     7     4    23    1
     8     4    27    1
     9    17     5    1
    10     5    73    1
    11    22     6    1
    12     6    78    1
    13    24     7    1
    14     7    40    1
    15     8    29    1
    16     8    86    1
    17     9    30    1
    18     9    44    1
    19    32    10    1
    20    10    94    1
    21    11    40    2
    22    12    44    2
    23    13    14    1
    24    13    15    1
    25    13    21    1
    26    14    16    1
    27    14    19    1
    28    14    57    1
    29    15    17    1
    30    15    20    1
    31    15    58    1
    32    16    18    1
    33    16    59    1
    34    17    22    1
    35    17    24    1
    36    18    22    1
    37    18    29    1
    38    19    23    1
    39    19    60    1
    40    20    25    1
    41    20    28    1
    42    20    61    1
    43    21    26    1
    44    21    30    1
    45    21    62    1
    46    22    63    1
    47    23    26    1
    48    23    31    1
    49    24    25    1
    50    24    64    1
    51    25    33    1
    52    25    65    1
    53    26    66    1
    54    26    67    1
    55    27    32    1
    56    28    34    1
    57    28    35    1
    58    28    68    1
    59    29    69    1
    60    29    70    1
    61    30    71    1
    62    30    72    1
    63    31    37    1
    64    31    39    2
    65    32    36    1
    66    32    74    1
    67    33    75    1
    68    33    76    1
    69    33    77    1
    70    34    38    1
    71    34    79    1
    72    34    80    1
    73    35    81    1
    74    35    82    1
    75    35    83    1
    76    36    41    1
    77    36    84    1
    78    36    85    1
    79    37    87    1
    80    37    88    1
    81    37    89    1
    82    38    42    1
    83    38    90    1
    84    38    91    1
    85    39    92    1
    86    39    93    1
    87    40    45    1
    88    41    43    1
    89    41    95    1
    90    41    96    1
    91    42    43    1
    92    42    97    1
    93    42    98    1
    94    43    99    1
    95    43   100    1
    96    44    46    1
    97    45    47   ar
    98    45    48   ar
    99    46    49   ar
   100    46    50   ar
   101    47    51   ar
   102    47   101    1
   103    48    52   ar
   104    48   102    1
   105    49    54   ar
   106    49   103    1
   107    50    55   ar
   108    50   104    1
   109    51    53   ar
   110    51   105    1
   111    52    53   ar
   112    52   106    1
   113    53   107    1
   114    54    56   ar
   115    54   108    1
   116    55    56   ar
   117    55   109    1
   118    56   110    1
