@<TRIPOS>MOLECULE
IMPHY007831
 64 68 0 0 0
SMALL
GASTEIGER

@<TRIPOS>ATOM
      1 O           8.5991   -1.4108    0.0000 O.3     1  UNL1       -0.3313
      2 O           6.0010   -1.9108    0.0000 O.3     1  UNL1       -0.3461
      3 O           4.2690   -1.9108    0.0000 O.3     1  UNL1       -0.3461
      4 O           6.8671   -3.4108    0.0000 O.3     1  UNL1       -0.3865
      5 O          10.3312   -1.4108    0.0000 O.3     1  UNL1       -0.4571
      6 O           8.5991   -4.4108    0.0000 O.3     1  UNL1       -0.3864
      7 O          10.3312   -3.4108    0.0000 O.3     1  UNL1       -0.3829
      8 O           6.0010    0.0892    0.0000 O.3     1  UNL1       -0.3841
      9 O           4.2690    1.0892    0.0000 O.3     1  UNL1       -0.3864
     10 O           2.5369    0.0892    0.0000 O.3     1  UNL1       -0.3869
     11 O          12.1011   -0.3799    0.0000 O.3     1  UNL1       -0.5028
     12 O          12.9512    1.1483    0.0000 O.2     1  UNL1       -0.2865
     13 O           9.4948    3.1617    0.0000 O.2     1  UNL1       -0.2866
     14 C           7.7331   -1.9108    0.0000 C.3     1  UNL1        0.1144
     15 C           7.7331   -2.9108    0.0000 C.3     1  UNL1        0.1120
     16 C           8.5991   -3.4108    0.0000 C.3     1  UNL1        0.1152
     17 C           9.4651   -2.9108    0.0000 C.3     1  UNL1        0.1454
     18 C           9.4651   -1.9108    0.0000 C.3     1  UNL1        0.2310
     19 C           6.8671   -1.4108    0.0000 C.3     1  UNL1        0.0796
     20 C           5.1350   -1.4108    0.0000 C.3     1  UNL1        0.1876
     21 C           5.1350   -0.4108    0.0000 C.3     1  UNL1        0.1341
     22 C           4.2690    0.0892    0.0000 C.3     1  UNL1        0.1137
     23 C           3.4030   -0.4108    0.0000 C.3     1  UNL1        0.1069
     24 C           3.4030   -1.4108    0.0000 C.3     1  UNL1        0.0792
     25 C          10.3312   -0.4108    0.0000 C.ar    1  UNL1        0.1659
     26 C          11.2312    0.1134    0.0000 C.ar    1  UNL1        0.1703
     27 C           9.4311    0.1134    0.0000 C.ar    1  UNL1       -0.0155
     28 C          11.2192    1.1550    0.0000 C.ar    1  UNL1        0.0781
     29 C          10.3551    1.6583    0.0000 C.ar    1  UNL1        0.0368
     30 C           9.4431    1.1550    0.0000 C.ar    1  UNL1       -0.0465
     31 C          12.0871    1.6517    0.0000 C.2     1  UNL1        0.1981
     32 C          10.3589    2.6583    0.0000 C.2     1  UNL1        0.1946
     33 C          12.0910    2.6517    0.0000 C.ar    1  UNL1        0.0332
     34 C          11.2269    3.1550    0.0000 C.ar    1  UNL1        0.0331
     35 C          13.0029    3.1550    0.0000 C.ar    1  UNL1       -0.0502
     36 C          11.2148    4.1966    0.0000 C.ar    1  UNL1       -0.0502
     37 C          13.0150    4.1966    0.0000 C.ar    1  UNL1       -0.0610
     38 C          12.1149    4.7208    0.0000 C.ar    1  UNL1       -0.0610
     39 H           7.7331   -1.2908    0.0000 H       1  UNL1        0.0647
     40 H           7.7331   -3.5308    0.0000 H       1  UNL1        0.0647
     41 H           9.1360   -3.7208    0.0000 H       1  UNL1        0.0648
     42 H          10.0021   -2.6008    0.0000 H       1  UNL1        0.0683
     43 H           9.4651   -1.2908    0.0000 H       1  UNL1        0.1084
     44 H           7.2656   -0.9359    0.0000 H       1  UNL1        0.0587
     45 H           6.4685   -0.9359    0.0000 H       1  UNL1        0.0587
     46 H           5.6720   -1.1008    0.0000 H       1  UNL1        0.0937
     47 H           5.1350    0.2092    0.0000 H       1  UNL1        0.0671
     48 H           3.7320    0.3992    0.0000 H       1  UNL1        0.0647
     49 H           3.9650    0.2092    0.0000 H       1  UNL1        0.0643
     50 H           2.7924   -1.3032    0.0000 H       1  UNL1        0.0587
     51 H           3.1909   -1.9934    0.0000 H       1  UNL1        0.0587
     52 H           6.8671   -4.0308    0.0000 H       1  UNL1        0.2100
     53 H           8.0622   -4.7208    0.0000 H       1  UNL1        0.2100
     54 H          10.3312   -4.0308    0.0000 H       1  UNL1        0.2102
     55 H           6.0010    0.7092    0.0000 H       1  UNL1        0.2101
     56 H           3.7320    1.3992    0.0000 H       1  UNL1        0.2100
     57 H           2.0000   -0.2208    0.0000 H       1  UNL1        0.2100
     58 H           8.8918   -0.1924    0.0000 H       1  UNL1        0.0655
     59 H           8.9110    1.4732    0.0000 H       1  UNL1        0.0626
     60 H          12.1059   -0.9998    0.0000 H       1  UNL1        0.2923
     61 H          13.5350    2.8368    0.0000 H       1  UNL1        0.0625
     62 H          10.6755    4.5024    0.0000 H       1  UNL1        0.0625
     63 H          13.5543    4.5024    0.0000 H       1  UNL1        0.0618
     64 H          12.1149    5.3408    0.0000 H       1  UNL1        0.0618
@<TRIPOS>BOND
     1     1    14    1
     2     1    18    1
     3     2    19    1
     4    20     2    1
     5     3    20    1
     6     3    24    1
     7    15     4    1
     8     4    52    1
     9    18     5    1
    10     5    25    1
    11    16     6    1
    12     6    53    1
    13    17     7    1
    14     7    54    1
    15    21     8    1
    16     8    55    1
    17    22     9    1
    18     9    56    1
    19    23    10    1
    20    10    57    1
    21    11    26    1
    22    11    60    1
    23    12    31    2
    24    13    32    2
    25    14    15    1
    26    14    19    1
    27    14    39    1
    28    15    16    1
    29    15    40    1
    30    16    17    1
    31    16    41    1
    32    17    18    1
    33    17    42    1
    34    18    43    1
    35    19    44    1
    36    19    45    1
    37    20    21    1
    38    20    46    1
    39    21    22    1
    40    21    47    1
    41    22    23    1
    42    22    48    1
    43    23    24    1
    44    23    49    1
    45    24    50    1
    46    24    51    1
    47    25    26   ar
    48    25    27   ar
    49    26    28   ar
    50    27    30   ar
    51    27    58    1
    52    28    29   ar
    53    28    31    1
    54    29    30   ar
    55    29    32    1
    56    30    59    1
    57    31    33    1
    58    32    34    1
    59    33    34   ar
    60    33    35   ar
    61    34    36   ar
    62    35    37   ar
    63    35    61    1
    64    36    38   ar
    65    36    62    1
    66    37    38   ar
    67    37    63    1
    68    38    64    1
