@<TRIPOS>MOLECULE
IMPHY001010
 69 73 0 0 0
SMALL
GASTEIGER

@<TRIPOS>ATOM
      1 O           6.8671   -4.4276    0.0000 O.3     1  UNL1       -0.3366
      2 O           7.8376   -2.9330    0.0000 O.3     1  UNL1       -0.3457
      3 O           5.1350   -2.4276    0.0000 O.3     1  UNL1       -0.3313
      4 O          10.1818   -3.0911    0.0000 O.3     1  UNL1       -0.3812
      5 O           6.8671   -2.4276    0.0000 O.3     1  UNL1       -0.4608
      6 O           8.8546   -5.3124    0.0000 O.3     1  UNL1       -0.3837
      7 O           5.1350   -5.4276    0.0000 O.3     1  UNL1       -0.3863
      8 O           3.4030   -4.4276    0.0000 O.3     1  UNL1       -0.3865
      9 O          11.0100   -3.9513    0.0000 O.3     1  UNL1       -0.3920
     10 O           2.5369   -2.9276    0.0000 O.3     1  UNL1       -0.3924
     11 O           7.7331    2.0724    0.0000 O.3     1  UNL1       -0.4830
     12 O           5.1350    3.5724    0.0000 O.2     1  UNL1       -0.2918
     13 O           9.5191    5.1175    0.0000 O.3     1  UNL1       -0.5066
     14 C           6.0010   -3.9276    0.0000 C.3     1  UNL1        0.1519
     15 C           9.3158   -3.5911    0.0000 C.3     1  UNL1        0.1425
     16 C           8.6466   -4.3343    0.0000 C.3     1  UNL1        0.1387
     17 C           5.1350   -4.4276    0.0000 C.3     1  UNL1        0.1155
     18 C           7.7331   -3.9276    0.0000 C.3     1  UNL1        0.1885
     19 C           4.2690   -3.9276    0.0000 C.3     1  UNL1        0.1120
     20 C           6.0010   -2.9276    0.0000 C.3     1  UNL1        0.2312
     21 C           4.2690   -2.9276    0.0000 C.3     1  UNL1        0.1140
     22 C           8.8158   -2.7251    0.0000 C.3     1  UNL1        0.0843
     23 C          10.0589   -4.2603    0.0000 C.3     1  UNL1        0.0778
     24 C           3.4030   -2.4276    0.0000 C.3     1  UNL1        0.0731
     25 C           6.8671   -1.4276    0.0000 C.ar    1  UNL1        0.1240
     26 C           7.7331   -0.9276    0.0000 C.ar    1  UNL1       -0.0195
     27 C           6.0010   -0.9276    0.0000 C.ar    1  UNL1       -0.0195
     28 C           6.8671    1.5724    0.0000 C.3     1  UNL1        0.1322
     29 C           6.8671    0.5724    0.0000 C.ar    1  UNL1       -0.0067
     30 C           7.7331    0.0725    0.0000 C.ar    1  UNL1       -0.0516
     31 C           6.0010    0.0725    0.0000 C.ar    1  UNL1       -0.0516
     32 C           6.0010    2.0724    0.0000 C.3     1  UNL1        0.0519
     33 C           6.0010    3.0724    0.0000 C.2     1  UNL1        0.1705
     34 C           6.8671    3.5724    0.0000 C.ar    1  UNL1        0.0594
     35 C           7.7331    3.0724    0.0000 C.ar    1  UNL1        0.1353
     36 C           8.6431    3.5793    0.0000 C.ar    1  UNL1        0.0223
     37 C           6.8510    4.6140    0.0000 C.ar    1  UNL1       -0.0443
     38 C           8.6511    4.6209    0.0000 C.ar    1  UNL1        0.1204
     39 C           7.7490    5.1417    0.0000 C.ar    1  UNL1       -0.0193
     40 H           6.5380   -3.6176    0.0000 H       1  UNL1        0.0687
     41 H           9.2455   -4.4948    0.0000 H       1  UNL1        0.0675
     42 H           5.6720   -4.7376    0.0000 H       1  UNL1        0.0648
     43 H           7.2131   -3.5899    0.0000 H       1  UNL1        0.0938
     44 H           3.7320   -3.6176    0.0000 H       1  UNL1        0.0647
     45 H           6.0010   -2.3076    0.0000 H       1  UNL1        0.1084
     46 H           4.2690   -2.3076    0.0000 H       1  UNL1        0.0647
     47 H           9.3822   -2.4729    0.0000 H       1  UNL1        0.0591
     48 H           8.6242   -2.1355    0.0000 H       1  UNL1        0.0591
     49 H           9.5703   -4.6420    0.0000 H       1  UNL1        0.0587
     50 H          10.3500   -4.8077    0.0000 H       1  UNL1        0.0587
     51 H           3.8015   -1.9526    0.0000 H       1  UNL1        0.0584
     52 H           3.0044   -1.9526    0.0000 H       1  UNL1        0.0584
     53 H          10.1818   -2.4711    0.0000 H       1  UNL1        0.2105
     54 H           8.3938   -5.7273    0.0000 H       1  UNL1        0.2101
     55 H           4.5981   -5.7376    0.0000 H       1  UNL1        0.2100
     56 H           3.4030   -5.0476    0.0000 H       1  UNL1        0.2100
     57 H          11.4707   -4.3661    0.0000 H       1  UNL1        0.2095
     58 H           2.0000   -2.6176    0.0000 H       1  UNL1        0.2095
     59 H           8.2700   -1.2376    0.0000 H       1  UNL1        0.0654
     60 H           5.4641   -1.2376    0.0000 H       1  UNL1        0.0654
     61 H           7.4040    1.2624    0.0000 H       1  UNL1        0.0789
     62 H           8.2700    0.3824    0.0000 H       1  UNL1        0.0623
     63 H           5.4641    0.3824    0.0000 H       1  UNL1        0.0623
     64 H           5.3905    2.1801    0.0000 H       1  UNL1        0.0385
     65 H           5.7890    1.4898    0.0000 H       1  UNL1        0.0385
     66 H           9.1764    3.2631    0.0000 H       1  UNL1        0.0691
     67 H           6.3105    4.9177    0.0000 H       1  UNL1        0.0627
     68 H           7.7466    5.7617    0.0000 H       1  UNL1        0.0654
     69 H           9.5214    5.7376    0.0000 H       1  UNL1        0.2921
@<TRIPOS>BOND
     1    14     1    1
     2    18     1    1
     3     2    18    1
     4     2    22    1
     5     3    20    1
     6     3    21    1
     7    15     4    1
     8     4    53    1
     9    20     5    1
    10     5    25    1
    11    16     6    1
    12     6    54    1
    13    17     7    1
    14     7    55    1
    15    19     8    1
    16     8    56    1
    17     9    23    1
    18     9    57    1
    19    10    24    1
    20    10    58    1
    21    11    28    1
    22    11    35    1
    23    12    33    2
    24    13    38    1
    25    13    69    1
    26    14    17    1
    27    14    20    1
    28    14    40    1
    29    15    16    1
    30    15    22    1
    31    15    23    1
    32    16    18    1
    33    16    41    1
    34    17    19    1
    35    17    42    1
    36    18    43    1
    37    19    21    1
    38    19    44    1
    39    20    45    1
    40    21    24    1
    41    21    46    1
    42    22    47    1
    43    22    48    1
    44    23    49    1
    45    23    50    1
    46    24    51    1
    47    24    52    1
    48    25    26   ar
    49    25    27   ar
    50    26    30   ar
    51    26    59    1
    52    27    31   ar
    53    27    60    1
    54    28    29    1
    55    28    32    1
    56    28    61    1
    57    29    30   ar
    58    29    31   ar
    59    30    62    1
    60    31    63    1
    61    32    33    1
    62    32    64    1
    63    32    65    1
    64    33    34    1
    65    34    35   ar
    66    34    37   ar
    67    35    36   ar
    68    36    38   ar
    69    36    66    1
    70    37    39   ar
    71    37    67    1
    72    38    39   ar
    73    39    68    1
