@<TRIPOS>MOLECULE
IMPHY006911
 139 146 0 0 0
SMALL
GASTEIGER

@<TRIPOS>ATOM
      1 O           6.8671   -3.5496    0.0000 O.3     1  UNL1       -0.3449
      2 O           8.6209    5.7298    0.0000 O.3     1  UNL1       -0.4318
      3 O           9.5042    4.2400    0.0000 O.2     1  UNL1       -0.2501
      4 O           5.1350   -3.5496    0.0000 O.3     1  UNL1       -0.3315
      5 O           6.8671   -5.5496    0.0000 O.3     1  UNL1       -0.3378
      6 O           9.4695    7.2398    0.0000 O.3     1  UNL1       -0.3312
      7 O           5.1350   -6.5496    0.0000 O.3     1  UNL1       -0.3864
      8 O           3.4030   -5.5496    0.0000 O.3     1  UNL1       -0.3860
      9 O          10.3644    4.7499    0.0000 O.3     1  UNL1       -0.3829
     10 O          12.0847    5.7699    0.0000 O.3     1  UNL1       -0.3864
     11 O           6.0010   -7.0496    0.0000 O.3     1  UNL1       -0.3461
     12 O          12.0616    7.7698    0.0000 O.3     1  UNL1       -0.3865
     13 O           2.5369   -4.0496    0.0000 O.3     1  UNL1       -0.4788
     14 O           3.4030   -2.5496    0.0000 O.2     1  UNL1       -0.2480
     15 O           8.5991   -6.5496    0.0000 O.3     1  UNL1       -0.3841
     16 O           9.4464    9.2396    0.0000 O.3     1  UNL1       -0.3924
     17 O           8.5991   -8.5496    0.0000 O.3     1  UNL1       -0.3864
     18 O           6.8671   -9.5496    0.0000 O.3     1  UNL1       -0.3869
     19 C           7.7681    1.1506    0.0000 C.3     1  UNL1       -0.0194
     20 C           6.9040    0.6473    0.0000 C.3     1  UNL1       -0.0257
     21 C           6.8920   -0.3943    0.0000 C.3     1  UNL1       -0.0250
     22 C           7.7643    2.1506    0.0000 C.3     1  UNL1       -0.0051
     23 C           7.7920   -0.9185    0.0000 C.3     1  UNL1       -0.0278
     24 C           8.6801    0.6473    0.0000 C.3     1  UNL1       -0.0463
     25 C           7.8046   -2.0035    0.0000 C.3     1  UNL1       -0.0052
     26 C           8.6921   -0.3943    0.0000 C.3     1  UNL1       -0.0486
     27 C           6.8963    2.6473    0.0000 C.2     1  UNL1       -0.0629
     28 C           6.8762    3.6887    0.0000 C.3     1  UNL1       -0.0031
     29 C           6.0361    1.1440    0.0000 C.3     1  UNL1       -0.0306
     30 C           5.9421   -0.9186    0.0000 C.3     1  UNL1       -0.0447
     31 C           8.6723    2.6610    0.0000 C.3     1  UNL1       -0.0424
     32 C           7.7722    4.2199    0.0000 C.3     1  UNL1        0.0744
     33 C           8.7522    1.3281    0.0000 C.3     1  UNL1       -0.0585
     34 C           6.8671   -2.5496    0.0000 C.3     1  UNL1        0.0672
     35 C           8.6763    3.7026    0.0000 C.3     1  UNL1       -0.0359
     36 C           6.0279    0.1091    0.0000 C.3     1  UNL1       -0.0590
     37 C           6.0322    2.1439    0.0000 C.2     1  UNL1       -0.0836
     38 C           5.9295   -2.0035    0.0000 C.3     1  UNL1       -0.0255
     39 C           8.7497    1.9808    0.0000 C.3     1  UNL1       -0.0553
     40 C           5.9223    4.2057    0.0000 C.3     1  UNL1       -0.0403
     41 C           7.7764    5.3049    0.0000 C.3     1  UNL1       -0.0362
     42 C           5.9014    5.2905    0.0000 C.3     1  UNL1       -0.0343
     43 C           8.8046   -1.9958    0.0000 C.3     1  UNL1       -0.0572
     44 C           8.3113   -2.8656    0.0000 C.3     1  UNL1       -0.0572
     45 C           6.8347    5.8438    0.0000 C.3     1  UNL1       -0.0468
     46 C           8.6324    4.7299    0.0000 C.2     1  UNL1        0.3161
     47 C           5.3881    6.1487    0.0000 C.3     1  UNL1       -0.0598
     48 C           4.9015    5.2750    0.0000 C.3     1  UNL1       -0.0598
     49 C           6.0010   -4.0496    0.0000 C.3     1  UNL1        0.1892
     50 C           6.0010   -5.0496    0.0000 C.3     1  UNL1        0.1407
     51 C           9.4810    6.2398    0.0000 C.3     1  UNL1        0.2337
     52 C           5.1350   -5.5496    0.0000 C.3     1  UNL1        0.1149
     53 C           4.2690   -4.0496    0.0000 C.3     1  UNL1        0.1859
     54 C           4.2690   -5.0496    0.0000 C.3     1  UNL1        0.1202
     55 C          10.3528    5.7499    0.0000 C.3     1  UNL1        0.1455
     56 C          11.2130    6.2599    0.0000 C.3     1  UNL1        0.1152
     57 C          10.3297    7.7497    0.0000 C.3     1  UNL1        0.1140
     58 C          11.2014    7.2598    0.0000 C.3     1  UNL1        0.1120
     59 C           6.8671   -6.5496    0.0000 C.3     1  UNL1        0.1881
     60 C           3.4030   -3.5496    0.0000 C.2     1  UNL1        0.3367
     61 C           7.7331   -7.0496    0.0000 C.3     1  UNL1        0.1341
     62 C          10.3181    8.7497    0.0000 C.3     1  UNL1        0.0731
     63 C           7.7331   -8.0496    0.0000 C.3     1  UNL1        0.1137
     64 C           6.0010   -8.0496    0.0000 C.3     1  UNL1        0.0792
     65 C           6.8671   -8.5496    0.0000 C.3     1  UNL1        0.1069
     66 H           7.6385    0.2195    0.0000 H       1  UNL1        0.0315
     67 H           8.5314   -1.3379    0.0000 H       1  UNL1        0.0312
     68 H           9.2921    0.5483    0.0000 H       1  UNL1        0.0271
     69 H           8.8824    1.2334    0.0000 H       1  UNL1        0.0271
     70 H           8.9079   -0.9755    0.0000 H       1  UNL1        0.0268
     71 H           9.3017   -0.2811    0.0000 H       1  UNL1        0.0268
     72 H           6.1502    3.2468    0.0000 H       1  UNL1        0.0357
     73 H           5.4251    1.2493    0.0000 H       1  UNL1        0.0310
     74 H           5.8263    0.5605    0.0000 H       1  UNL1        0.0310
     75 H           5.7398   -0.3325    0.0000 H       1  UNL1        0.0271
     76 H           5.3300   -1.0176    0.0000 H       1  UNL1        0.0271
     77 H           8.8791    2.0765    0.0000 H       1  UNL1        0.0274
     78 H           9.2836    2.7647    0.0000 H       1  UNL1        0.0274
     79 H           8.8623    0.7179    0.0000 H       1  UNL1        0.0235
     80 H           9.3624    1.4381    0.0000 H       1  UNL1        0.0235
     81 H           8.6422    1.9382    0.0000 H       1  UNL1        0.0235
     82 H           7.4046   -2.8586    0.0000 H       1  UNL1        0.0602
     83 H           9.2868    3.5942    0.0000 H       1  UNL1        0.0276
     84 H           8.8876    4.2855    0.0000 H       1  UNL1        0.0276
     85 H           6.3400    0.6448    0.0000 H       1  UNL1        0.0235
     86 H           5.4922    0.4211    0.0000 H       1  UNL1        0.0235
     87 H           5.7158   -0.4267    0.0000 H       1  UNL1        0.0235
     88 H           5.4941    2.4519    0.0000 H       1  UNL1        0.0572
     89 H           5.3199   -1.8903    0.0000 H       1  UNL1        0.0290
     90 H           5.7137   -2.5847    0.0000 H       1  UNL1        0.0290
     91 H           8.6444    1.3698    0.0000 H       1  UNL1        0.0238
     92 H           9.3607    1.8755    0.0000 H       1  UNL1        0.0238
     93 H           8.8550    2.5918    0.0000 H       1  UNL1        0.0238
     94 H           5.3095    4.3000    0.0000 H       1  UNL1        0.0276
     95 H           5.7246    3.6181    0.0000 H       1  UNL1        0.0276
     96 H           8.3869    5.1965    0.0000 H       1  UNL1        0.0276
     97 H           7.9877    5.8878    0.0000 H       1  UNL1        0.0276
     98 H           8.8094   -2.6157    0.0000 H       1  UNL1        0.0236
     99 H           7.7767   -3.1798    0.0000 H       1  UNL1        0.0236
    100 H           8.6254   -3.4002    0.0000 H       1  UNL1        0.0236
    101 H           8.8458   -2.5515    0.0000 H       1  UNL1        0.0236
    102 H           9.4246   -1.9910    0.0000 H       1  UNL1        0.0236
    103 H           8.7998   -1.3758    0.0000 H       1  UNL1        0.0236
    104 H           7.2302    6.3213    0.0000 H       1  UNL1        0.0271
    105 H           6.4319    6.3151    0.0000 H       1  UNL1        0.0271
    106 H           4.8920    5.8950    0.0000 H       1  UNL1        0.0235
    107 H           4.2816    5.2655    0.0000 H       1  UNL1        0.0235
    108 H           4.9111    4.6551    0.0000 H       1  UNL1        0.0235
    109 H           5.9202    6.4669    0.0000 H       1  UNL1        0.0235
    110 H           5.0699    6.6808    0.0000 H       1  UNL1        0.0235
    111 H           4.8560    5.8304    0.0000 H       1  UNL1        0.0235
    112 H           6.0010   -3.4296    0.0000 H       1  UNL1        0.0938
    113 H           6.0010   -5.6696    0.0000 H       1  UNL1        0.0675
    114 H           9.4882    5.6199    0.0000 H       1  UNL1        0.1085
    115 H           4.5981   -5.8596    0.0000 H       1  UNL1        0.0648
    116 H           4.2690   -3.4296    0.0000 H       1  UNL1        0.0741
    117 H           3.7320   -4.7396    0.0000 H       1  UNL1        0.0652
    118 H          10.8933    5.4461    0.0000 H       1  UNL1        0.0683
    119 H          11.7463    6.5760    0.0000 H       1  UNL1        0.0648
    120 H           9.7892    8.0535    0.0000 H       1  UNL1        0.0647
    121 H          11.1943    7.8798    0.0000 H       1  UNL1        0.0647
    122 H           7.4040   -6.2396    0.0000 H       1  UNL1        0.0937
    123 H           4.5981   -6.8596    0.0000 H       1  UNL1        0.2100
    124 H           3.4030   -6.1696    0.0000 H       1  UNL1        0.2100
    125 H          10.9049    4.4462    0.0000 H       1  UNL1        0.2102
    126 H           8.2700   -7.3596    0.0000 H       1  UNL1        0.0671
    127 H          10.9299    8.6491    0.0000 H       1  UNL1        0.0584
    128 H          10.5234    9.3347    0.0000 H       1  UNL1        0.0584
    129 H          12.6181    6.0861    0.0000 H       1  UNL1        0.2100
    130 H          12.0544    8.3897    0.0000 H       1  UNL1        0.2100
    131 H           7.7331   -8.6696    0.0000 H       1  UNL1        0.0647
    132 H           2.0000   -3.7396    0.0000 H       1  UNL1        0.2951
    133 H           5.3905   -7.9419    0.0000 H       1  UNL1        0.0587
    134 H           5.7890   -8.6322    0.0000 H       1  UNL1        0.0587
    135 H           6.3301   -8.8596    0.0000 H       1  UNL1        0.0643
    136 H           9.1360   -6.8596    0.0000 H       1  UNL1        0.2101
    137 H           9.4392    9.8596    0.0000 H       1  UNL1        0.2095
    138 H           8.5991   -9.1696    0.0000 H       1  UNL1        0.2100
    139 H           6.3301   -9.8596    0.0000 H       1  UNL1        0.2100
@<TRIPOS>BOND
     1    34     1    1
     2    49     1    1
     3     2    46    1
     4    51     2    1
     5     3    46    2
     6     4    49    1
     7     4    53    1
     8    50     5    1
     9    59     5    1
    10     6    51    1
    11     6    57    1
    12    52     7    1
    13     7   123    1
    14    54     8    1
    15     8   124    1
    16    55     9    1
    17     9   125    1
    18    56    10    1
    19    10   129    1
    20    11    59    1
    21    11    64    1
    22    58    12    1
    23    12   130    1
    24    13    60    1
    25    13   132    1
    26    14    60    2
    27    61    15    1
    28    15   136    1
    29    16    62    1
    30    16   137    1
    31    63    17    1
    32    17   138    1
    33    65    18    1
    34    18   139    1
    35    19    20    1
    36    19    22    1
    37    19    24    1
    38    19    33    1
    39    20    21    1
    40    20    29    1
    41    20    66    1
    42    21    23    1
    43    21    30    1
    44    21    36    1
    45    22    27    1
    46    22    31    1
    47    22    39    1
    48    23    25    1
    49    23    26    1
    50    23    67    1
    51    24    26    1
    52    24    68    1
    53    24    69    1
    54    25    34    1
    55    25    43    1
    56    25    44    1
    57    26    70    1
    58    26    71    1
    59    27    28    1
    60    27    37    2
    61    28    32    1
    62    28    40    1
    63    28    72    1
    64    29    37    1
    65    29    73    1
    66    29    74    1
    67    30    38    1
    68    30    75    1
    69    30    76    1
    70    31    35    1
    71    31    77    1
    72    31    78    1
    73    32    35    1
    74    32    41    1
    75    32    46    1
    76    33    79    1
    77    33    80    1
    78    33    81    1
    79    34    38    1
    80    34    82    1
    81    35    83    1
    82    35    84    1
    83    36    85    1
    84    36    86    1
    85    36    87    1
    86    37    88    1
    87    38    89    1
    88    38    90    1
    89    39    91    1
    90    39    92    1
    91    39    93    1
    92    40    42    1
    93    40    94    1
    94    40    95    1
    95    41    45    1
    96    41    96    1
    97    41    97    1
    98    42    45    1
    99    42    47    1
   100    42    48    1
   101    43    98    1
   102    43   102    1
   103    43   103    1
   104    44    99    1
   105    44   100    1
   106    44   101    1
   107    45   104    1
   108    45   105    1
   109    47   109    1
   110    47   110    1
   111    47   111    1
   112    48   106    1
   113    48   107    1
   114    48   108    1
   115    49    50    1
   116    49   112    1
   117    50    52    1
   118    50   113    1
   119    51    55    1
   120    51   114    1
   121    52    54    1
   122    52   115    1
   123    53    54    1
   124    53    60    1
   125    53   116    1
   126    54   117    1
   127    55    56    1
   128    55   118    1
   129    56    58    1
   130    56   119    1
   131    57    58    1
   132    57    62    1
   133    57   120    1
   134    58   121    1
   135    59    61    1
   136    59   122    1
   137    61    63    1
   138    61   126    1
   139    62   127    1
   140    62   128    1
   141    63    65    1
   142    63   131    1
   143    64    65    1
   144    64   133    1
   145    64   134    1
   146    65   135    1
