@<TRIPOS>MOLECULE
IMPHY009232
 86 91 0 0 0
SMALL
GASTEIGER

@<TRIPOS>ATOM
      1 O           8.6322    1.7624    0.0000 O.3     1  UNL1       -0.3877
      2 O           5.1720    0.7491    0.0000 O.3     1  UNL1       -0.3915
      3 O           6.8671   -3.4411    0.0000 O.3     1  UNL1       -0.3454
      4 O           5.0281    5.2761    0.0000 O.3     1  UNL1       -0.4571
      5 O           5.1350   -3.4411    0.0000 O.3     1  UNL1       -0.3405
      6 O           5.6632    6.9411    0.0000 O.2     1  UNL1       -0.2456
      7 O           6.8671   -5.4411    0.0000 O.3     1  UNL1       -0.3841
      8 O           5.1350   -6.4411    0.0000 O.3     1  UNL1       -0.3744
      9 O           3.4030   -5.4411    0.0000 O.3     1  UNL1       -0.3865
     10 O           2.5369   -3.9411    0.0000 O.3     1  UNL1       -0.3924
     11 C           7.7643    2.2591    0.0000 C.3     1  UNL1        0.0752
     12 C           7.7681    1.2591    0.0000 C.3     1  UNL1       -0.0059
     13 C           6.9040    0.7558    0.0000 C.3     1  UNL1       -0.0039
     14 C           6.8963    2.7558    0.0000 C.3     1  UNL1        0.0059
     15 C           6.8920   -0.2858    0.0000 C.3     1  UNL1       -0.0236
     16 C           7.7920   -0.8101    0.0000 C.3     1  UNL1       -0.0329
     17 C           6.0361    1.2524    0.0000 C.3     1  UNL1        0.0595
     18 C           6.0322    2.2524    0.0000 C.3     1  UNL1       -0.0180
     19 C           7.1018    3.7284    0.0000 C.3     1  UNL1       -0.0080
     20 C           8.6801    0.7558    0.0000 C.3     1  UNL1       -0.0470
     21 C           8.4987    2.9290    0.0000 C.3     1  UNL1       -0.0226
     22 C           8.6921   -0.2858    0.0000 C.3     1  UNL1       -0.0493
     23 C           8.0901    3.8352    0.0000 C.3     1  UNL1       -0.0432
     24 C           5.9421   -0.8101    0.0000 C.3     1  UNL1       -0.0447
     25 C           7.8046   -1.8950    0.0000 C.3     1  UNL1       -0.0232
     26 C           6.0284    3.2524    0.0000 C.3     1  UNL1       -0.0563
     27 C           6.0279    0.2175    0.0000 C.3     1  UNL1       -0.0590
     28 C           5.9295   -1.8950    0.0000 C.3     1  UNL1       -0.0260
     29 C           6.8671   -2.4411    0.0000 C.3     1  UNL1        0.0621
     30 C           6.4311    4.4701    0.0000 C.2     1  UNL1       -0.0222
     31 C           5.4368    4.3634    0.0000 C.3     1  UNL1        0.1147
     32 C           6.6369    5.4487    0.0000 C.2     1  UNL1        0.0252
     33 C           6.0010   -3.9411    0.0000 C.3     1  UNL1        0.1882
     34 C           5.7698    5.9468    0.0000 C.2     1  UNL1        0.3323
     35 C           6.0010   -4.9411    0.0000 C.3     1  UNL1        0.1344
     36 C           5.1350   -5.4411    0.0000 C.3     1  UNL1        0.1171
     37 C           4.2690   -3.9411    0.0000 C.3     1  UNL1        0.1130
     38 C           4.2690   -4.9411    0.0000 C.3     1  UNL1        0.1121
     39 C           3.4030   -3.4411    0.0000 C.3     1  UNL1        0.0730
     40 C           4.2690   -6.9411    0.0000 C.3     1  UNL1        0.0370
     41 H           8.4993    1.6926    0.0000 H       1  UNL1        0.0332
     42 H           7.6385    0.3279    0.0000 H       1  UNL1        0.0335
     43 H           8.5314   -1.2294    0.0000 H       1  UNL1        0.0307
     44 H           6.0385    0.6324    0.0000 H       1  UNL1        0.0596
     45 H           5.8179    2.8342    0.0000 H       1  UNL1        0.0296
     46 H           5.4221    2.1424    0.0000 H       1  UNL1        0.0296
     47 H           7.3225    4.3078    0.0000 H       1  UNL1        0.0353
     48 H           9.2921    0.6567    0.0000 H       1  UNL1        0.0269
     49 H           8.8824    1.3418    0.0000 H       1  UNL1        0.0269
     50 H           8.8661    2.4296    0.0000 H       1  UNL1        0.0293
     51 H           9.0340    3.2418    0.0000 H       1  UNL1        0.0293
     52 H           8.9079   -0.8670    0.0000 H       1  UNL1        0.0268
     53 H           9.3017   -0.1727    0.0000 H       1  UNL1        0.0268
     54 H           8.6790    4.0293    0.0000 H       1  UNL1        0.0272
     55 H           7.9590    4.4412    0.0000 H       1  UNL1        0.0272
     56 H           5.7398   -0.2240    0.0000 H       1  UNL1        0.0271
     57 H           5.3300   -0.9091    0.0000 H       1  UNL1        0.0271
     58 H           8.0204   -2.4762    0.0000 H       1  UNL1        0.0293
     59 H           8.4142   -1.7819    0.0000 H       1  UNL1        0.0293
     60 H           6.3363    3.7905    0.0000 H       1  UNL1        0.0236
     61 H           5.4902    3.5603    0.0000 H       1  UNL1        0.0236
     62 H           5.7204    2.7143    0.0000 H       1  UNL1        0.0236
     63 H           6.3400    0.7533    0.0000 H       1  UNL1        0.0235
     64 H           5.4922    0.5296    0.0000 H       1  UNL1        0.0235
     65 H           5.7158   -0.3182    0.0000 H       1  UNL1        0.0235
     66 H           5.3199   -1.7819    0.0000 H       1  UNL1        0.0290
     67 H           5.7137   -2.4762    0.0000 H       1  UNL1        0.0290
     68 H           7.4046   -2.7501    0.0000 H       1  UNL1        0.0597
     69 H           9.1680    2.0745    0.0000 H       1  UNL1        0.2102
     70 H           4.6339    1.0570    0.0000 H       1  UNL1        0.2098
     71 H           4.8475    4.1706    0.0000 H       1  UNL1        0.0746
     72 H           5.5670    3.7573    0.0000 H       1  UNL1        0.0746
     73 H           7.2028    5.7020    0.0000 H       1  UNL1        0.0689
     74 H           6.0010   -3.3211    0.0000 H       1  UNL1        0.0937
     75 H           6.0010   -5.5611    0.0000 H       1  UNL1        0.0671
     76 H           4.5981   -5.7511    0.0000 H       1  UNL1        0.0650
     77 H           4.2690   -3.3211    0.0000 H       1  UNL1        0.0647
     78 H           3.7320   -4.6311    0.0000 H       1  UNL1        0.0647
     79 H           6.8671   -6.0611    0.0000 H       1  UNL1        0.2101
     80 H           3.8015   -2.9662    0.0000 H       1  UNL1        0.0584
     81 H           3.0044   -2.9662    0.0000 H       1  UNL1        0.0584
     82 H           3.4030   -6.0611    0.0000 H       1  UNL1        0.2100
     83 H           3.9590   -6.4042    0.0000 H       1  UNL1        0.0524
     84 H           3.7320   -7.2511    0.0000 H       1  UNL1        0.0524
     85 H           4.5790   -7.4781    0.0000 H       1  UNL1        0.0524
     86 H           2.0000   -3.6311    0.0000 H       1  UNL1        0.2095
@<TRIPOS>BOND
     1    11     1    1
     2     1    69    1
     3    17     2    1
     4     2    70    1
     5    29     3    1
     6    33     3    1
     7     4    31    1
     8     4    34    1
     9     5    33    1
    10     5    37    1
    11     6    34    2
    12    35     7    1
    13     7    79    1
    14    36     8    1
    15     8    40    1
    16    38     9    1
    17     9    82    1
    18    10    39    1
    19    10    86    1
    20    11    12    1
    21    11    14    1
    22    11    21    1
    23    12    13    1
    24    12    20    1
    25    12    41    1
    26    13    15    1
    27    13    17    1
    28    13    42    1
    29    14    18    1
    30    14    19    1
    31    14    26    1
    32    15    16    1
    33    15    24    1
    34    15    27    1
    35    16    22    1
    36    16    25    1
    37    16    43    1
    38    17    18    1
    39    17    44    1
    40    18    45    1
    41    18    46    1
    42    19    23    1
    43    19    30    1
    44    19    47    1
    45    20    22    1
    46    20    48    1
    47    20    49    1
    48    21    23    1
    49    21    50    1
    50    21    51    1
    51    22    52    1
    52    22    53    1
    53    23    54    1
    54    23    55    1
    55    24    28    1
    56    24    56    1
    57    24    57    1
    58    25    29    1
    59    25    58    1
    60    25    59    1
    61    26    60    1
    62    26    61    1
    63    26    62    1
    64    27    63    1
    65    27    64    1
    66    27    65    1
    67    28    29    1
    68    28    66    1
    69    28    67    1
    70    29    68    1
    71    30    31    1
    72    30    32    2
    73    31    71    1
    74    31    72    1
    75    32    34    1
    76    32    73    1
    77    33    35    1
    78    33    74    1
    79    35    36    1
    80    35    75    1
    81    36    38    1
    82    36    76    1
    83    37    38    1
    84    37    39    1
    85    37    77    1
    86    38    78    1
    87    39    80    1
    88    39    81    1
    89    40    83    1
    90    40    84    1
    91    40    85    1
