@<TRIPOS>MOLECULE
IMPHY009616
 50 54 0 0 0
SMALL
GASTEIGER

@<TRIPOS>ATOM
      1 O           5.5162    0.8857    0.0000 O.3     1  UNL1       -0.4569
      2 O           2.9461   -2.6635    0.0000 O.3     1  UNL1       -0.3912
      3 O           8.4608   -0.2149    0.0000 O.3     1  UNL1       -0.3881
      4 O           7.9012   -2.0754    0.0000 O.3     1  UNL1       -0.3891
      5 O           7.9380    1.4422    0.0000 O.2     1  UNL1       -0.2501
      6 O           4.4394    2.1141    0.0000 O.3     1  UNL1       -0.4804
      7 O           6.1653    1.9686    0.0000 O.2     1  UNL1       -0.2507
      8 C           4.4481   -0.0026    0.0000 C.3     1  UNL1       -0.0051
      9 C           5.6621   -0.8482    0.0000 C.3     1  UNL1        0.1240
     10 C           4.7500   -0.8698    0.0000 C.3     1  UNL1        0.0085
     11 C           5.9251    0.0258    0.0000 C.3     1  UNL1        0.0307
     12 C           5.1763    0.5466    0.0000 C.3     1  UNL1        0.0701
     13 C           6.8424    0.2418    0.0000 C.3     1  UNL1        0.1003
     14 C           3.7521   -0.8350    0.0000 C.3     1  UNL1       -0.0370
     15 C           3.5812    0.3020    0.0000 C.3     1  UNL1       -0.0248
     16 C           4.2598   -1.6463    0.0000 C.3     1  UNL1       -0.0193
     17 C           2.6992   -1.0976    0.0000 C.3     1  UNL1        0.0064
     18 C           6.2999   -1.5628    0.0000 C.3     1  UNL1        0.0163
     19 C           3.3475   -1.7476    0.0000 C.3     1  UNL1        0.0621
     20 C           7.4875   -0.4444    0.0000 C.3     1  UNL1        0.0970
     21 C           7.2160   -1.3470    0.0000 C.3     1  UNL1        0.0857
     22 C           2.8036   -0.1850    0.0000 C.2     1  UNL1       -0.0705
     23 C           7.1072    0.8857    0.0000 C.2     1  UNL1        0.3166
     24 C           5.2603    1.5431    0.0000 C.2     1  UNL1        0.3088
     25 C           7.8258    0.4230    0.0000 C.3     1  UNL1       -0.0465
     26 C           2.0000    0.4102    0.0000 C.2     1  UNL1       -0.0991
     27 H           5.0558   -1.4092    0.0000 H       1  UNL1        0.0346
     28 H           6.0411    0.6348    0.0000 H       1  UNL1        0.0359
     29 H           4.6335    0.8462    0.0000 H       1  UNL1        0.0423
     30 H           3.7092   -1.4535    0.0000 H       1  UNL1        0.0278
     31 H           4.3272   -1.0666    0.0000 H       1  UNL1        0.0278
     32 H           3.9118    0.8266    0.0000 H       1  UNL1        0.0316
     33 H           3.1434    0.7411    0.0000 H       1  UNL1        0.0316
     34 H           4.1892   -2.2623    0.0000 H       1  UNL1        0.0294
     35 H           4.8446   -1.8523    0.0000 H       1  UNL1        0.0294
     36 H           2.1137   -1.3015    0.0000 H       1  UNL1        0.0371
     37 H           5.7755   -1.8936    0.0000 H       1  UNL1        0.0330
     38 H           6.5396   -2.1345    0.0000 H       1  UNL1        0.0330
     39 H           3.7148   -2.2471    0.0000 H       1  UNL1        0.0599
     40 H           7.9124   -0.8959    0.0000 H       1  UNL1        0.0630
     41 H           7.0374   -1.9407    0.0000 H       1  UNL1        0.0621
     42 H           7.9382   -0.1867    0.0000 H       1  UNL1        0.0241
     43 H           8.4356    0.5353    0.0000 H       1  UNL1        0.0241
     44 H           7.7135    1.0327    0.0000 H       1  UNL1        0.0241
     45 H           2.0704    1.0261    0.0000 H       1  UNL1        0.0535
     46 H           1.4313    0.1632    0.0000 H       1  UNL1        0.0535
     47 H           2.3298   -2.7319    0.0000 H       1  UNL1        0.2098
     48 H           8.8858   -0.6664    0.0000 H       1  UNL1        0.2099
     49 H           7.7226   -2.6691    0.0000 H       1  UNL1        0.2099
     50 H           4.4915    2.7319    0.0000 H       1  UNL1        0.2951
@<TRIPOS>BOND
     1     1     9    1
     2     1    23    1
     3     2    19    1
     4     2    47    1
     5     3    20    1
     6     3    48    1
     7     4    21    1
     8     4    49    1
     9     5    23    2
    10     6    24    1
    11     6    50    1
    12     7    24    2
    13     8    10    1
    14     8    12    1
    15     8    14    1
    16     8    15    1
    17     9    10    1
    18     9    11    1
    19     9    18    1
    20    10    16    1
    21    10    27    1
    22    11    12    1
    23    11    13    1
    24    11    28    1
    25    12    24    1
    26    12    29    1
    27    13    20    1
    28    13    23    1
    29    13    25    1
    30    14    17    1
    31    14    30    1
    32    14    31    1
    33    15    22    1
    34    15    32    1
    35    15    33    1
    36    16    19    1
    37    16    34    1
    38    16    35    1
    39    17    19    1
    40    17    22    1
    41    17    36    1
    42    18    21    1
    43    18    37    1
    44    18    38    1
    45    19    39    1
    46    20    21    1
    47    20    40    1
    48    21    41    1
    49    22    26    2
    50    25    42    1
    51    25    43    1
    52    25    44    1
    53    26    45    1
    54    26    46    1
