@<TRIPOS>MOLECULE
IMPHY014556
 29 28 0 0 0
SMALL
GASTEIGER

@<TRIPOS>ATOM
      1 O           4.5981   -1.2500    0.0000 O.3     1  UNL1       -0.3741
      2 O           5.4641    1.2500    0.0000 O.3     1  UNL1       -0.3866
      3 O           3.7320    1.2500    0.0000 O.3     1  UNL1       -0.3699
      4 O           7.1962    0.2500    0.0000 O.3     1  UNL1       -0.3894
      5 O           2.0000    0.2500    0.0000 O.2     1  UNL1       -0.2982
      6 C           4.5981   -0.2500    0.0000 C.3     1  UNL1        0.1191
      7 C           5.4641    0.2500    0.0000 C.3     1  UNL1        0.1096
      8 C           6.3301   -0.2500    0.0000 C.3     1  UNL1        0.0808
      9 C           3.7320    0.2500    0.0000 C.3     1  UNL1        0.1414
     10 C           6.3301   -1.2500    0.0000 C.3     1  UNL1       -0.0364
     11 C           2.8660   -0.2500    0.0000 C.2     1  UNL1        0.1515
     12 C           3.7320   -1.7500    0.0000 C.3     1  UNL1        0.0370
     13 C           2.8660    1.7500    0.0000 C.3     1  UNL1        0.0375
     14 H           5.1350   -0.5600    0.0000 H       1  UNL1        0.0653
     15 H           6.0010    0.5600    0.0000 H       1  UNL1        0.0646
     16 H           6.8671   -0.5600    0.0000 H       1  UNL1        0.0617
     17 H           4.2690    0.5600    0.0000 H       1  UNL1        0.0700
     18 H           5.7101   -1.2500    0.0000 H       1  UNL1        0.0255
     19 H           6.3301   -1.8700    0.0000 H       1  UNL1        0.0255
     20 H           6.9501   -1.2500    0.0000 H       1  UNL1        0.0255
     21 H           6.0010    1.5600    0.0000 H       1  UNL1        0.2100
     22 H           2.8660   -0.8700    0.0000 H       1  UNL1        0.1055
     23 H           7.7331   -0.0600    0.0000 H       1  UNL1        0.2099
     24 H           3.4220   -1.2131    0.0000 H       1  UNL1        0.0524
     25 H           3.1951   -2.0600    0.0000 H       1  UNL1        0.0524
     26 H           4.0420   -2.2869    0.0000 H       1  UNL1        0.0524
     27 H           3.1760    2.2869    0.0000 H       1  UNL1        0.0524
     28 H           2.3291    2.0600    0.0000 H       1  UNL1        0.0524
     29 H           2.5560    1.2131    0.0000 H       1  UNL1        0.0524
@<TRIPOS>BOND
     1     6     1    1
     2     1    12    1
     3     7     2    1
     4     2    21    1
     5     9     3    1
     6     3    13    1
     7     8     4    1
     8     4    23    1
     9     5    11    2
    10     6     7    1
    11     6     9    1
    12     6    14    1
    13     7     8    1
    14     7    15    1
    15     8    10    1
    16     8    16    1
    17     9    11    1
    18     9    17    1
    19    10    18    1
    20    10    19    1
    21    10    20    1
    22    11    22    1
    23    12    24    1
    24    12    25    1
    25    12    26    1
    26    13    27    1
    27    13    28    1
    28    13    29    1
