@<TRIPOS>MOLECULE
IMPHY015366
 26 25 0 0 0
SMALL
GASTEIGER

@<TRIPOS>ATOM
      1 O           6.3301   -0.7500    0.0000 O.2     1  UNL1       -0.2977
      2 C           4.5981    0.2500    0.0000 C.3     1  UNL1       -0.0189
      3 C           5.4641    0.7500    0.0000 C.3     1  UNL1        0.0116
      4 C           3.7320    0.7500    0.0000 C.2     1  UNL1       -0.0821
      5 C           4.5981   -0.7500    0.0000 C.3     1  UNL1       -0.0586
      6 C           2.8660    0.2500    0.0000 C.2     1  UNL1       -0.0794
      7 C           6.3301    0.2500    0.0000 C.2     1  UNL1        0.1309
      8 C           2.0000    0.7500    0.0000 C.3     1  UNL1       -0.0440
      9 C           2.8660   -0.7500    0.0000 C.3     1  UNL1       -0.0440
     10 C           7.1962    0.7500    0.0000 C.3     1  UNL1       -0.0060
     11 H           5.1350   -0.0600    0.0000 H       1  UNL1        0.0344
     12 H           5.8626    1.2250    0.0000 H       1  UNL1        0.0347
     13 H           5.0656    1.2250    0.0000 H       1  UNL1        0.0347
     14 H           3.7320    1.3700    0.0000 H       1  UNL1        0.0574
     15 H           3.9781   -0.7500    0.0000 H       1  UNL1        0.0235
     16 H           4.5981   -1.3700    0.0000 H       1  UNL1        0.0235
     17 H           5.2181   -0.7500    0.0000 H       1  UNL1        0.0235
     18 H           2.3100    1.2869    0.0000 H       1  UNL1        0.0274
     19 H           1.4631    1.0600    0.0000 H       1  UNL1        0.0274
     20 H           1.6900    0.2131    0.0000 H       1  UNL1        0.0274
     21 H           2.2460   -0.7500    0.0000 H       1  UNL1        0.0274
     22 H           2.8660   -1.3700    0.0000 H       1  UNL1        0.0274
     23 H           3.4860   -0.7500    0.0000 H       1  UNL1        0.0274
     24 H           7.5062    0.2131    0.0000 H       1  UNL1        0.0306
     25 H           7.7331    1.0600    0.0000 H       1  UNL1        0.0306
     26 H           6.8862    1.2869    0.0000 H       1  UNL1        0.0306
@<TRIPOS>BOND
     1     1     7    2
     2     2     3    1
     3     2     4    1
     4     2     5    1
     5     2    11    1
     6     3     7    1
     7     3    12    1
     8     3    13    1
     9     4     6    2
    10     4    14    1
    11     5    15    1
    12     5    16    1
    13     5    17    1
    14     6     8    1
    15     6     9    1
    16     7    10    1
    17     8    18    1
    18     8    19    1
    19     8    20    1
    20     9    21    1
    21     9    22    1
    22     9    23    1
    23    10    24    1
    24    10    25    1
    25    10    26    1
