@<TRIPOS>MOLECULE
IMPHY016504
 27 28 0 0 0
SMALL
GASTEIGER

@<TRIPOS>ATOM
      1 O           4.6783   -0.9877    0.0000 O.3     1  UNL1       -0.4466
      2 O           6.2619   -0.1830    0.0000 O.2     1  UNL1       -0.2456
      3 C           2.8660    0.8170    0.0000 C.3     1  UNL1       -0.0059
      4 C           3.7320   -0.6830    0.0000 C.3     1  UNL1        0.1512
      5 C           3.7320    0.3170    0.0000 C.2     1  UNL1       -0.0103
      6 C           2.0000    0.3170    0.0000 C.3     1  UNL1       -0.0256
      7 C           2.3660    1.6830    0.0000 C.3     1  UNL1       -0.0557
      8 C           3.3660    1.6830    0.0000 C.3     1  UNL1       -0.0557
      9 C           2.8660   -1.1830    0.0000 C.2     1  UNL1       -0.0409
     10 C           2.0000   -0.6830    0.0000 C.2     1  UNL1       -0.0831
     11 C           4.6783    0.6217    0.0000 C.2     1  UNL1        0.0263
     12 C           3.7320   -1.6830    0.0000 C.3     1  UNL1       -0.0171
     13 C           5.2619   -0.1830    0.0000 C.2     1  UNL1        0.3332
     14 H           1.7880    0.8996    0.0000 H       1  UNL1        0.0316
     15 H           1.3894    0.2093    0.0000 H       1  UNL1        0.0316
     16 H           2.8660   -1.8030    0.0000 H       1  UNL1        0.0611
     17 H           2.9030    1.9930    0.0000 H       1  UNL1        0.0238
     18 H           2.0560    2.2200    0.0000 H       1  UNL1        0.0238
     19 H           1.8291    1.3730    0.0000 H       1  UNL1        0.0238
     20 H           3.9030    1.3730    0.0000 H       1  UNL1        0.0238
     21 H           3.6760    2.2200    0.0000 H       1  UNL1        0.0238
     22 H           2.8291    1.9930    0.0000 H       1  UNL1        0.0238
     23 H           1.4631   -0.9930    0.0000 H       1  UNL1        0.0571
     24 H           4.8709    1.2110    0.0000 H       1  UNL1        0.0690
     25 H           3.1120   -1.6830    0.0000 H       1  UNL1        0.0275
     26 H           3.7320   -2.3030    0.0000 H       1  UNL1        0.0275
     27 H           4.3520   -1.6830    0.0000 H       1  UNL1        0.0275
@<TRIPOS>BOND
     1     1     4    1
     2     1    13    1
     3     2    13    2
     4     3     5    1
     5     3     6    1
     6     3     7    1
     7     3     8    1
     8     4     5    1
     9     4     9    1
    10     4    12    1
    11     5    11    2
    12     6    10    1
    13     6    14    1
    14     6    15    1
    15     7    17    1
    16     7    18    1
    17     7    19    1
    18     8    20    1
    19     8    21    1
    20     8    22    1
    21     9    10    2
    22     9    16    1
    23    10    23    1
    24    11    13    1
    25    11    24    1
    26    12    25    1
    27    12    26    1
    28    12    27    1
