@<TRIPOS>MOLECULE
IMPHY000543
 69 73 0 0 0
SMALL
GASTEIGER

@<TRIPOS>ATOM
      1 O           2.5357   -2.8124    0.0000 O.3     1  UNL1       -0.3915
      2 O          10.5214    0.0066    0.0000 O.3     1  UNL1       -0.5050
      3 N          10.4749    2.6520    0.0000 N.ar    1  UNL1       -0.2557
      4 C           7.9288    0.2400    0.0000 C.3     1  UNL1       -0.0255
      5 C           7.9288   -0.7600    0.0000 C.3     1  UNL1       -0.0320
      6 C           7.0628   -1.2600    0.0000 C.3     1  UNL1       -0.0307
      7 C           6.1968   -0.7600    0.0000 C.3     1  UNL1       -0.0285
      8 C           8.8750    0.5447    0.0000 C.3     1  UNL1       -0.0273
      9 C           7.0628    0.7400    0.0000 C.3     1  UNL1       -0.0468
     10 C           5.2868   -1.2669    0.0000 C.3     1  UNL1       -0.0078
     11 C           8.8750   -1.0648    0.0000 C.3     1  UNL1       -0.0491
     12 C           6.1968    0.2400    0.0000 C.3     1  UNL1       -0.0486
     13 C           9.4586   -0.2600    0.0000 C.3     1  UNL1       -0.0488
     14 C           7.0789   -2.3015    0.0000 C.3     1  UNL1       -0.0311
     15 C           7.9288    1.2400    0.0000 C.3     1  UNL1       -0.0590
     16 C           5.2787   -2.3085    0.0000 C.2     1  UNL1       -0.0648
     17 C           9.1857    1.4952    0.0000 C.3     1  UNL1        0.0054
     18 C           4.3599   -0.7028    0.0000 C.3     1  UNL1       -0.0413
     19 C           6.1808   -2.8293    0.0000 C.2     1  UNL1       -0.0839
     20 C           5.2945   -0.2669    0.0000 C.3     1  UNL1       -0.0556
     21 C           4.3433   -2.8582    0.0000 C.3     1  UNL1       -0.0051
     22 C           3.4120   -1.2307    0.0000 C.3     1  UNL1       -0.0258
     23 C           3.4037   -2.3157    0.0000 C.3     1  UNL1        0.0590
     24 C           8.5179    2.2395    0.0000 C.3     1  UNL1       -0.0566
     25 C          10.1642    1.7014    0.0000 C.ar    1  UNL1        0.0856
     26 C          10.8321    0.9572    0.0000 C.ar    1  UNL1        0.1386
     27 C          11.8106    1.1634    0.0000 C.ar    1  UNL1       -0.0140
     28 C          11.4534    2.8582    0.0000 C.ar    1  UNL1        0.0310
     29 C          12.1212    2.1139    0.0000 C.ar    1  UNL1       -0.0289
     30 C          13.0997    2.3201    0.0000 C.3     1  UNL1       -0.0382
     31 H           8.0188   -1.6052    0.0000 H       1  UNL1        0.0309
     32 H           7.8022   -1.6793    0.0000 H       1  UNL1        0.0309
     33 H           6.9329   -0.3350    0.0000 H       1  UNL1        0.0312
     34 H           9.7148    0.6766    0.0000 H       1  UNL1        0.0312
     35 H           7.4613    1.2149    0.0000 H       1  UNL1        0.0271
     36 H           6.6643    1.2149    0.0000 H       1  UNL1        0.0271
     37 H           8.6240   -1.6317    0.0000 H       1  UNL1        0.0268
     38 H           9.4124   -1.3740    0.0000 H       1  UNL1        0.0268
     39 H           5.9847    0.8226    0.0000 H       1  UNL1        0.0268
     40 H           5.5862    0.1323    0.0000 H       1  UNL1        0.0268
     41 H           9.9195   -0.6747    0.0000 H       1  UNL1        0.0268
     42 H           9.9195    0.1547    0.0000 H       1  UNL1        0.0268
     43 H           7.2969   -2.8819    0.0000 H       1  UNL1        0.0310
     44 H           7.6880   -2.1860    0.0000 H       1  UNL1        0.0310
     45 H           8.5488    1.2400    0.0000 H       1  UNL1        0.0235
     46 H           7.9288    1.8600    0.0000 H       1  UNL1        0.0235
     47 H           7.3088    1.2400    0.0000 H       1  UNL1        0.0235
     48 H           9.3783    2.0846    0.0000 H       1  UNL1        0.0365
     49 H           4.7681   -0.2361    0.0000 H       1  UNL1        0.0274
     50 H           3.9700   -0.2207    0.0000 H       1  UNL1        0.0274
     51 H           6.1832   -3.4493    0.0000 H       1  UNL1        0.0572
     52 H           5.9145   -0.2717    0.0000 H       1  UNL1        0.0238
     53 H           5.2993    0.3531    0.0000 H       1  UNL1        0.0238
     54 H           4.6745   -0.2621    0.0000 H       1  UNL1        0.0238
     55 H           3.9460   -3.3342    0.0000 H       1  UNL1        0.0335
     56 H           4.7443   -3.3311    0.0000 H       1  UNL1        0.0335
     57 H           3.2075   -0.6454    0.0000 H       1  UNL1        0.0290
     58 H           2.8004   -1.3321    0.0000 H       1  UNL1        0.0290
     59 H           3.4025   -2.9357    0.0000 H       1  UNL1        0.0596
     60 H           8.9793    2.6536    0.0000 H       1  UNL1        0.0236
     61 H           8.1038    2.7010    0.0000 H       1  UNL1        0.0236
     62 H           8.0564    1.8255    0.0000 H       1  UNL1        0.0236
     63 H           2.0000   -2.5003    0.0000 H       1  UNL1        0.2098
     64 H          12.2246    0.7019    0.0000 H       1  UNL1        0.0658
     65 H          11.6460    3.4475    0.0000 H       1  UNL1        0.0832
     66 H          10.9355   -0.4548    0.0000 H       1  UNL1        0.2922
     67 H          13.2276    1.7134    0.0000 H       1  UNL1        0.0278
     68 H          13.7064    2.4480    0.0000 H       1  UNL1        0.0278
     69 H          12.9719    2.9268    0.0000 H       1  UNL1        0.0278
@<TRIPOS>BOND
     1    23     1    1
     2     1    63    1
     3     2    26    1
     4     2    66    1
     5     3    25   ar
     6     3    28   ar
     7     4     5    1
     8     4     8    1
     9     4     9    1
    10     4    15    1
    11     5     6    1
    12     5    11    1
    13     5    31    1
    14     6     7    1
    15     6    14    1
    16     6    32    1
    17     7    10    1
    18     7    12    1
    19     7    33    1
    20     8    13    1
    21     8    17    1
    22     8    34    1
    23     9    12    1
    24     9    35    1
    25     9    36    1
    26    10    16    1
    27    10    18    1
    28    10    20    1
    29    11    13    1
    30    11    37    1
    31    11    38    1
    32    12    39    1
    33    12    40    1
    34    13    41    1
    35    13    42    1
    36    14    19    1
    37    14    43    1
    38    14    44    1
    39    15    45    1
    40    15    46    1
    41    15    47    1
    42    16    19    2
    43    16    21    1
    44    17    24    1
    45    17    25    1
    46    17    48    1
    47    18    22    1
    48    18    49    1
    49    18    50    1
    50    19    51    1
    51    20    52    1
    52    20    53    1
    53    20    54    1
    54    21    23    1
    55    21    55    1
    56    21    56    1
    57    22    23    1
    58    22    57    1
    59    22    58    1
    60    23    59    1
    61    24    60    1
    62    24    61    1
    63    24    62    1
    64    25    26   ar
    65    26    27   ar
    66    27    29   ar
    67    27    64    1
    68    28    29   ar
    69    28    65    1
    70    29    30    1
    71    30    67    1
    72    30    68    1
    73    30    69    1
