@<TRIPOS>MOLECULE
IMPHY016257
 32 31 0 0 0
SMALL
GASTEIGER

@<TRIPOS>ATOM
      1 C           5.4641    0.0000    0.0000 C.3     1  UNL1       -0.0390
      2 C           6.3301    0.5000    0.0000 C.3     1  UNL1       -0.0439
      3 C           4.5981    0.5000    0.0000 C.3     1  UNL1       -0.0500
      4 C           5.4641   -1.0000    0.0000 C.3     1  UNL1       -0.0528
      5 C           3.7320   -0.0000    0.0000 C.3     1  UNL1       -0.0530
      6 C           7.1962    0.0000    0.0000 C.3     1  UNL1       -0.0624
      7 C           6.3301    1.5000    0.0000 C.3     1  UNL1       -0.0624
      8 C           2.8660    0.5000    0.0000 C.3     1  UNL1       -0.0559
      9 C           4.5981   -1.5000    0.0000 C.3     1  UNL1       -0.0650
     10 C           2.0000   -0.0000    0.0000 C.3     1  UNL1       -0.0653
     11 H           5.4641    0.6200    0.0000 H       1  UNL1        0.0303
     12 H           6.8671    0.8100    0.0000 H       1  UNL1        0.0298
     13 H           4.9966    0.9749    0.0000 H       1  UNL1        0.0268
     14 H           4.1996    0.9749    0.0000 H       1  UNL1        0.0268
     15 H           5.6762   -1.5826    0.0000 H       1  UNL1        0.0265
     16 H           6.0747   -0.8923    0.0000 H       1  UNL1        0.0265
     17 H           3.3335   -0.4749    0.0000 H       1  UNL1        0.0265
     18 H           4.1306   -0.4749    0.0000 H       1  UNL1        0.0265
     19 H           6.8862   -0.5369    0.0000 H       1  UNL1        0.0232
     20 H           7.7331   -0.3100    0.0000 H       1  UNL1        0.0232
     21 H           7.5062    0.5369    0.0000 H       1  UNL1        0.0232
     22 H           6.9501    1.5000    0.0000 H       1  UNL1        0.0232
     23 H           6.3301    2.1200    0.0000 H       1  UNL1        0.0232
     24 H           5.7101    1.5000    0.0000 H       1  UNL1        0.0232
     25 H           3.2646    0.9749    0.0000 H       1  UNL1        0.0263
     26 H           2.4675    0.9749    0.0000 H       1  UNL1        0.0263
     27 H           4.2881   -0.9631    0.0000 H       1  UNL1        0.0230
     28 H           4.0611   -1.8100    0.0000 H       1  UNL1        0.0230
     29 H           4.9081   -2.0369    0.0000 H       1  UNL1        0.0230
     30 H           1.6900    0.5369    0.0000 H       1  UNL1        0.0230
     31 H           1.4631   -0.3100    0.0000 H       1  UNL1        0.0230
     32 H           2.3100   -0.5369    0.0000 H       1  UNL1        0.0230
@<TRIPOS>BOND
     1     1     2    1
     2     1     3    1
     3     1     4    1
     4     1    11    1
     5     2     6    1
     6     2     7    1
     7     2    12    1
     8     3     5    1
     9     3    13    1
    10     3    14    1
    11     4     9    1
    12     4    15    1
    13     4    16    1
    14     5     8    1
    15     5    17    1
    16     5    18    1
    17     6    19    1
    18     6    20    1
    19     6    21    1
    20     7    22    1
    21     7    23    1
    22     7    24    1
    23     8    10    1
    24     8    25    1
    25     8    26    1
    26     9    27    1
    27     9    28    1
    28     9    29    1
    29    10    30    1
    30    10    31    1
    31    10    32    1
