@<TRIPOS>MOLECULE
IMPHY013730
 26 26 0 0 0
SMALL
GASTEIGER

@<TRIPOS>ATOM
      1 NA          6.5380    3.9650    0.0000 Na      1  UNL1        0.0000
      2 O           0.5369    3.3100    0.0000 O.3     2  UNL2        0.0000
      3 O           2.2690    0.3100    0.0000 O.3     2  UNL2        0.0000
      4 N           2.2690    4.3100    0.0000 N.2     2  UNL2        0.0000
      5 N           3.1350    4.8100    0.0000 N.2     2  UNL2        0.0000
      6 N           2.2690    6.3100    0.0000 N.ar    2  UNL2        0.0000
      7 C           2.2690    3.3100    0.0000 C.ar    2  UNL2        0.0000
      8 C           1.4030    2.8100    0.0000 C.ar    2  UNL2        0.0000
      9 C           3.1350    2.8100    0.0000 C.ar    2  UNL2        0.0000
     10 C           1.4030    1.8100    0.0000 C.ar    2  UNL2        0.0000
     11 C           2.2690    1.3100    0.0000 C.ar    2  UNL2        0.0000
     12 C           3.1350    1.8100    0.0000 C.ar    2  UNL2        0.0000
     13 C           3.1350    5.8100    0.0000 C.ar    2  UNL2        0.0000
     14 C           4.0010    6.3100    0.0000 C.ar    2  UNL2        0.0000
     15 C           4.0010    7.3100    0.0000 C.ar    2  UNL2        0.0000
     16 C           3.1350    7.8100    0.0000 C.ar    2  UNL2        0.0000
     17 C           2.2690    7.3100    0.0000 C.ar    2  UNL2        0.0000
     18 H           3.6720    3.1200    0.0000 H       2  UNL2        0.0000
     19 H           0.8660    1.5000    0.0000 H       2  UNL2        0.0000
     20 H           3.6720    1.5000    0.0000 H       2  UNL2        0.0000
     21 H           4.5380    6.0000    0.0000 H       2  UNL2        0.0000
     22 H           4.5380    7.6200    0.0000 H       2  UNL2        0.0000
     23 H           3.1350    8.4300    0.0000 H       2  UNL2        0.0000
     24 H           1.7320    7.6200    0.0000 H       2  UNL2        0.0000
     25 H           0.0000    3.0000    0.0000 H       2  UNL2        0.0000
     26 H           2.8059    0.0000    0.0000 H       2  UNL2        0.0000
@<TRIPOS>UNITY_ATOM_ATTR
1 1
charge 1
@<TRIPOS>BOND
     1     2     8    1
     2     2    25    1
     3     3    11    1
     4     3    26    1
     5     4     5    2
     6     4     7    1
     7     5    13    1
     8     6    13   ar
     9     6    17   ar
    10     7     8   ar
    11     7     9   ar
    12     8    10   ar
    13     9    12   ar
    14     9    18    1
    15    10    11   ar
    16    10    19    1
    17    11    12   ar
    18    12    20    1
    19    13    14   ar
    20    14    15   ar
    21    14    21    1
    22    15    16   ar
    23    15    22    1
    24    16    17   ar
    25    16    23    1
    26    17    24    1
