@<TRIPOS>MOLECULE
IMPHY004468
 48 49 0 0 0
SMALL
GASTEIGER

@<TRIPOS>ATOM
      1 S           6.0010   -0.5950    0.0000 S.3     1  UNL1       -0.0728
      2 S           7.7331    2.4050    0.0000 S.O2    1  UNL1        0.2709
      3 O           4.2690   -0.5950    0.0000 O.3     1  UNL1       -0.3549
      4 O           4.2690   -3.5950    0.0000 O.3     1  UNL1       -0.3865
      5 O           2.5369   -2.5950    0.0000 O.3     1  UNL1       -0.3865
      6 O           6.0010   -2.5950    0.0000 O.3     1  UNL1       -0.3857
      7 O           2.5369    0.4050    0.0000 O.3     1  UNL1       -0.3924
      8 O           6.8671    1.9050    0.0000 O.2     1  UNL1       -0.2068
      9 O           8.5991    2.9050    0.0000 O.3     1  UNL1       -0.2209
     10 O           7.2331    3.2710    0.0000 O.2     1  UNL1       -0.1060
     11 O           8.2331    1.5390    0.0000 O.2     1  UNL1       -0.1060
     12 N           6.8671    0.9050    0.0000 N.2     1  UNL1       -0.0483
     13 C           4.2690   -2.5950    0.0000 C.3     1  UNL1        0.1126
     14 C           3.4030   -2.0950    0.0000 C.3     1  UNL1        0.1118
     15 C           5.1350   -2.0950    0.0000 C.3     1  UNL1        0.1192
     16 C           3.4030   -1.0950    0.0000 C.3     1  UNL1        0.1115
     17 C           5.1350   -1.0950    0.0000 C.3     1  UNL1        0.1384
     18 C           2.5369   -0.5950    0.0000 C.3     1  UNL1        0.0730
     19 C           6.0010    0.4050    0.0000 C.2     1  UNL1        0.1185
     20 C           5.1350    0.9050    0.0000 C.3     1  UNL1        0.0030
     21 C           5.1350    1.9050    0.0000 C.3     1  UNL1       -0.0217
     22 C           4.2690    2.4050    0.0000 C.ar    1  UNL1       -0.0470
     23 C           4.2690    3.4050    0.0000 C.ar    1  UNL1       -0.0586
     24 C           3.4030    1.9050    0.0000 C.ar    1  UNL1       -0.0586
     25 C           3.4030    3.9050    0.0000 C.ar    1  UNL1       -0.0615
     26 C           2.5369    2.4050    0.0000 C.ar    1  UNL1       -0.0615
     27 C           2.5369    3.4050    0.0000 C.ar    1  UNL1       -0.0617
     28 H           4.8059   -2.9050    0.0000 H       1  UNL1        0.0647
     29 H           3.4030   -2.7150    0.0000 H       1  UNL1        0.0647
     30 H           5.6720   -1.7850    0.0000 H       1  UNL1        0.0655
     31 H           3.4030   -0.4750    0.0000 H       1  UNL1        0.0646
     32 H           5.1350   -0.4750    0.0000 H       1  UNL1        0.0743
     33 H           1.9264   -0.4873    0.0000 H       1  UNL1        0.0584
     34 H           2.3249   -1.1776    0.0000 H       1  UNL1        0.0584
     35 H           3.7320   -3.9050    0.0000 H       1  UNL1        0.2100
     36 H           2.0000   -2.2850    0.0000 H       1  UNL1        0.2100
     37 H           6.5380   -2.2850    0.0000 H       1  UNL1        0.2100
     38 H           4.5244    1.0127    0.0000 H       1  UNL1        0.0338
     39 H           4.9230    0.3224    0.0000 H       1  UNL1        0.0338
     40 H           2.0000    0.7150    0.0000 H       1  UNL1        0.2095
     41 H           5.7456    1.7973    0.0000 H       1  UNL1        0.0317
     42 H           5.3471    2.4876    0.0000 H       1  UNL1        0.0317
     43 H           4.8059    3.7150    0.0000 H       1  UNL1        0.0620
     44 H           3.4030    1.2850    0.0000 H       1  UNL1        0.0620
     45 H           3.4030    4.5250    0.0000 H       1  UNL1        0.0618
     46 H           2.0000    2.0950    0.0000 H       1  UNL1        0.0618
     47 H           2.0000    3.7150    0.0000 H       1  UNL1        0.0618
     48 H           8.5991    3.5250    0.0000 H       1  UNL1        0.2480
@<TRIPOS>BOND
     1    17     1    1
     2     1    19    1
     3     2     8    1
     4     2     9    1
     5     2    10    2
     6     2    11    2
     7     3    16    1
     8     3    17    1
     9    13     4    1
    10     4    35    1
    11    14     5    1
    12     5    36    1
    13    15     6    1
    14     6    37    1
    15     7    18    1
    16     7    40    1
    17     8    12    1
    18     9    48    1
    19    12    19    2
    20    13    14    1
    21    13    15    1
    22    13    28    1
    23    14    16    1
    24    14    29    1
    25    15    17    1
    26    15    30    1
    27    16    18    1
    28    16    31    1
    29    17    32    1
    30    18    33    1
    31    18    34    1
    32    19    20    1
    33    20    21    1
    34    20    38    1
    35    20    39    1
    36    21    22    1
    37    21    41    1
    38    21    42    1
    39    22    23   ar
    40    22    24   ar
    41    23    25   ar
    42    23    43    1
    43    24    26   ar
    44    24    44    1
    45    25    27   ar
    46    25    45    1
    47    26    27   ar
    48    26    46    1
    49    27    47    1
