@<TRIPOS>MOLECULE
IMPHY000807
 52 56 0 0 0
SMALL
GASTEIGER

@<TRIPOS>ATOM
      1 O           6.3474    1.7715    0.0000 O.3     1  UNL1       -0.4604
      2 O           7.2134    0.2715    0.0000 O.2     1  UNL1       -0.2433
      3 N           2.8393   -1.2354    0.0000 N.3     1  UNL1       -0.2930
      4 N           5.4814   -0.7285    0.0000 N.ar    1  UNL1       -0.3055
      5 C           3.7493    0.2715    0.0000 C.3     1  UNL1        0.0120
      6 C           3.7493   -0.7285    0.0000 C.3     1  UNL1        0.0606
      7 C           2.8911    0.7684    0.0000 C.3     1  UNL1       -0.0409
      8 C           4.6153   -1.2285    0.0000 C.ar    1  UNL1        0.0463
      9 C           2.0000   -0.7072    0.0000 C.3     1  UNL1       -0.0004
     10 C           2.0256    0.2842    0.0000 C.3     1  UNL1       -0.0393
     11 C           3.7493    1.2715    0.0000 C.3     1  UNL1       -0.0449
     12 C           2.8313   -2.2770    0.0000 C.3     1  UNL1        0.0036
     13 C           4.6314   -2.2700    0.0000 C.ar    1  UNL1       -0.0158
     14 C           4.6153    0.7715    0.0000 C.2     1  UNL1       -0.0451
     15 C           3.7334   -2.7978    0.0000 C.3     1  UNL1       -0.0125
     16 C           5.4814    0.2715    0.0000 C.2     1  UNL1        0.1283
     17 C           5.6194   -2.3772    0.0000 C.ar    1  UNL1        0.0037
     18 C           6.0993   -1.5069    0.0000 C.ar    1  UNL1        0.0546
     19 C           2.8833    1.7715    0.0000 C.3     1  UNL1       -0.0644
     20 C           6.3474    0.7715    0.0000 C.2     1  UNL1        0.3559
     21 C           6.1408   -3.2715    0.0000 C.ar    1  UNL1       -0.0523
     22 C           7.1338   -1.4706    0.0000 C.ar    1  UNL1       -0.0372
     23 C           7.1760   -3.2591    0.0000 C.ar    1  UNL1       -0.0611
     24 C           7.6758   -2.3525    0.0000 C.ar    1  UNL1       -0.0598
     25 C           7.2134    2.2715    0.0000 C.3     1  UNL1        0.0900
     26 C           7.2134    3.2715    0.0000 C.3     1  UNL1       -0.0306
     27 H           3.7493   -1.5785    0.0000 H       1  UNL1        0.0536
     28 H           3.2922    1.2412    0.0000 H       1  UNL1        0.0275
     29 H           2.4971    1.2471    0.0000 H       1  UNL1        0.0275
     30 H           1.3929   -0.5813    0.0000 H       1  UNL1        0.0427
     31 H           1.7682   -1.2822    0.0000 H       1  UNL1        0.0427
     32 H           1.8239    0.8705    0.0000 H       1  UNL1        0.0278
     33 H           1.4128    0.1899    0.0000 H       1  UNL1        0.0278
     34 H           4.3599    1.1638    0.0000 H       1  UNL1        0.0272
     35 H           3.9614    1.8541    0.0000 H       1  UNL1        0.0272
     36 H           2.2213   -2.1662    0.0000 H       1  UNL1        0.0430
     37 H           2.6177   -2.8590    0.0000 H       1  UNL1        0.0430
     38 H           4.6153    1.3915    0.0000 H       1  UNL1        0.0601
     39 H           3.3361   -3.2738    0.0000 H       1  UNL1        0.0326
     40 H           4.1343   -3.2707    0.0000 H       1  UNL1        0.0326
     41 H           3.1933    2.3084    0.0000 H       1  UNL1        0.0230
     42 H           2.3464    2.0815    0.0000 H       1  UNL1        0.0230
     43 H           2.5733    1.2345    0.0000 H       1  UNL1        0.0230
     44 H           5.8352   -3.8109    0.0000 H       1  UNL1        0.0624
     45 H           7.4269   -0.9242    0.0000 H       1  UNL1        0.0638
     46 H           7.4944   -3.7910    0.0000 H       1  UNL1        0.0618
     47 H           8.2956   -2.3379    0.0000 H       1  UNL1        0.0618
     48 H           7.4255    1.6889    0.0000 H       1  UNL1        0.0695
     49 H           7.8240    2.3791    0.0000 H       1  UNL1        0.0695
     50 H           7.8334    3.2715    0.0000 H       1  UNL1        0.0262
     51 H           7.2134    3.8915    0.0000 H       1  UNL1        0.0262
     52 H           6.5934    3.2715    0.0000 H       1  UNL1        0.0262
@<TRIPOS>BOND
     1     1    20    1
     2     1    25    1
     3     2    20    2
     4     3     6    1
     5     3     9    1
     6     3    12    1
     7     4     8   ar
     8     4    16    1
     9     4    18   ar
    10     5     6    1
    11     5     7    1
    12     5    11    1
    13     5    14    1
    14     6     8    1
    15     6    27    1
    16     7    10    1
    17     7    28    1
    18     7    29    1
    19     8    13   ar
    20     9    10    1
    21     9    30    1
    22     9    31    1
    23    10    32    1
    24    10    33    1
    25    11    19    1
    26    11    34    1
    27    11    35    1
    28    12    15    1
    29    12    36    1
    30    12    37    1
    31    13    15    1
    32    13    17   ar
    33    14    16    2
    34    14    38    1
    35    15    39    1
    36    15    40    1
    37    16    20    1
    38    17    18   ar
    39    17    21   ar
    40    18    22   ar
    41    19    41    1
    42    19    42    1
    43    19    43    1
    44    21    23   ar
    45    21    44    1
    46    22    24   ar
    47    22    45    1
    48    23    24   ar
    49    23    46    1
    50    24    47    1
    51    25    26    1
    52    25    48    1
    53    25    49    1
    54    26    50    1
    55    26    51    1
    56    26    52    1
