@<TRIPOS>MOLECULE
IMPHY016156
 31 30 0 0 0
SMALL
GASTEIGER

@<TRIPOS>ATOM
      1 O           3.7320    1.0000    0.0000 O.3     1  UNL1       -0.3513
      2 O           4.5981   -0.5000    0.0000 O.3     1  UNL1       -0.3513
      3 C           5.4641    1.0000    0.0000 C.3     1  UNL1        0.0071
      4 C           4.5981    0.5000    0.0000 C.3     1  UNL1        0.1616
      5 C           6.3301    0.5000    0.0000 C.3     1  UNL1       -0.0487
      6 C           5.4641    2.0000    0.0000 C.3     1  UNL1       -0.0578
      7 C           7.1962    1.0000    0.0000 C.3     1  UNL1       -0.0649
      8 C           2.8660    0.5000    0.0000 C.3     1  UNL1        0.0478
      9 C           3.7320   -1.0000    0.0000 C.3     1  UNL1        0.0478
     10 C           2.0000    1.0000    0.0000 C.3     1  UNL1       -0.0415
     11 C           3.7320   -2.0000    0.0000 C.3     1  UNL1       -0.0415
     12 H           6.0010    1.3100    0.0000 H       1  UNL1        0.0347
     13 H           4.5981    1.1200    0.0000 H       1  UNL1        0.0912
     14 H           5.9316    0.0251    0.0000 H       1  UNL1        0.0267
     15 H           6.7287    0.0251    0.0000 H       1  UNL1        0.0267
     16 H           6.0841    2.0000    0.0000 H       1  UNL1        0.0234
     17 H           5.4641    2.6200    0.0000 H       1  UNL1        0.0234
     18 H           4.8441    2.0000    0.0000 H       1  UNL1        0.0234
     19 H           7.5062    0.4631    0.0000 H       1  UNL1        0.0230
     20 H           7.7331    1.3100    0.0000 H       1  UNL1        0.0230
     21 H           6.8862    1.5369    0.0000 H       1  UNL1        0.0230
     22 H           2.4675    0.0251    0.0000 H       1  UNL1        0.0558
     23 H           3.2646    0.0251    0.0000 H       1  UNL1        0.0558
     24 H           3.5200   -0.4174    0.0000 H       1  UNL1        0.0558
     25 H           3.1215   -1.1077    0.0000 H       1  UNL1        0.0558
     26 H           2.3100    1.5369    0.0000 H       1  UNL1        0.0252
     27 H           1.4631    1.3100    0.0000 H       1  UNL1        0.0252
     28 H           1.6900    0.4631    0.0000 H       1  UNL1        0.0252
     29 H           3.1120   -2.0000    0.0000 H       1  UNL1        0.0252
     30 H           3.7320   -2.6200    0.0000 H       1  UNL1        0.0252
     31 H           4.3520   -2.0000    0.0000 H       1  UNL1        0.0252
@<TRIPOS>BOND
     1     1     4    1
     2     1     8    1
     3     2     4    1
     4     2     9    1
     5     3     4    1
     6     3     5    1
     7     3     6    1
     8     3    12    1
     9     4    13    1
    10     5     7    1
    11     5    14    1
    12     5    15    1
    13     6    16    1
    14     6    17    1
    15     6    18    1
    16     7    19    1
    17     7    20    1
    18     7    21    1
    19     8    10    1
    20     8    22    1
    21     8    23    1
    22     9    11    1
    23     9    24    1
    24     9    25    1
    25    10    26    1
    26    10    27    1
    27    10    28    1
    28    11    29    1
    29    11    30    1
    30    11    31    1
