@<TRIPOS>MOLECULE
IMPHY008353
 77 82 0 0 0
SMALL
GASTEIGER

@<TRIPOS>ATOM
      1 O           2.7246   -0.4793    0.0000 O.3     1  UNL1       -0.3672
      2 O           4.1906    0.4207    0.0000 O.3     1  UNL1       -0.3337
      3 O           3.7028   -2.5108    0.0000 O.3     1  UNL1       -0.4606
      4 O           6.3227    1.0207    0.0000 O.3     1  UNL1       -0.4552
      5 O           3.2247   -0.1204    0.0000 O.3     1  UNL1       -0.4344
      6 O           7.9450   -0.1588    0.0000 O.3     1  UNL1       -0.3372
      7 O           9.8422   -0.1412    0.0000 O.2     1  UNL1       -0.4708
      8 O           4.5515   -4.0207    0.0000 O.2     1  UNL1       -0.2512
      9 O           5.4567    2.5207    0.0000 O.2     1  UNL1       -0.2453
     10 O           3.6730    1.5525    0.0000 O.2     1  UNL1       -0.2511
     11 C           4.5906   -0.9793    0.0000 C.3     1  UNL1        0.1077
     12 C           5.4567   -0.4793    0.0000 C.3     1  UNL1        0.0241
     13 C           3.7246   -0.4793    0.0000 C.3     1  UNL1        0.1104
     14 C           6.3667   -0.9862    0.0000 C.3     1  UNL1        0.0042
     15 C           5.4567    0.5207    0.0000 C.3     1  UNL1        0.1339
     16 C           4.5746   -2.0208    0.0000 C.3     1  UNL1        0.1178
     17 C           3.7246    0.5207    0.0000 C.3     1  UNL1        0.0093
     18 C           4.5906    1.0207    0.0000 C.3     1  UNL1        0.1025
     19 C           4.1906   -0.3793    0.0000 C.3     1  UNL1        0.2172
     20 C           3.2246   -1.3453    0.0000 C.3     1  UNL1        0.0785
     21 C           6.3747   -2.0278    0.0000 C.3     1  UNL1       -0.0324
     22 C           5.4726   -2.5486    0.0000 C.3     1  UNL1       -0.0116
     23 C           7.3666   -0.9746    0.0000 C.3     1  UNL1        0.0694
     24 C           6.8566   -0.1144    0.0000 C.3     1  UNL1       -0.0566
     25 C           7.9637   -1.7768    0.0000 C.3     1  UNL1       -0.0138
     26 C           7.2426   -2.5244    0.0000 C.3     1  UNL1       -0.0617
     27 C           8.9111   -1.4568    0.0000 C.3     1  UNL1        0.0451
     28 C           8.8996   -0.4568    0.0000 C.3     1  UNL1        0.2075
     29 C           3.6913   -3.5107    0.0000 C.2     1  UNL1        0.3042
     30 C           6.3227    2.0207    0.0000 C.2     1  UNL1        0.3349
     31 C           9.8608   -1.7505    0.0000 C.2     1  UNL1       -0.0405
     32 C           2.9660    0.8455    0.0000 C.2     1  UNL1        0.3061
     33 C          10.4351   -0.9391    0.0000 C.2     1  UNL1        0.0844
     34 C           2.8195   -4.0007    0.0000 C.3     1  UNL1        0.0332
     35 C           7.1887    2.5207    0.0000 C.2     1  UNL1        0.0293
     36 C           2.0000    1.1043    0.0000 C.3     1  UNL1        0.0333
     37 C           8.0548    2.0207    0.0000 C.3     1  UNL1       -0.0333
     38 C           7.1887    3.5207    0.0000 C.2     1  UNL1       -0.0774
     39 C           8.0548    4.0207    0.0000 C.3     1  UNL1       -0.0461
     40 H           6.1928   -0.0543    0.0000 H       1  UNL1        0.0353
     41 H           5.4567    1.1407    0.0000 H       1  UNL1        0.0763
     42 H           4.0419   -1.7036    0.0000 H       1  UNL1        0.0743
     43 H           3.5126    1.1033    0.0000 H       1  UNL1        0.0320
     44 H           3.1140    0.4130    0.0000 H       1  UNL1        0.0320
     45 H           4.5906    1.8707    0.0000 H       1  UNL1        0.0635
     46 H           3.8292   -0.8831    0.0000 H       1  UNL1        0.1065
     47 H           2.7497   -1.7439    0.0000 H       1  UNL1        0.0589
     48 H           3.6996   -1.7439    0.0000 H       1  UNL1        0.0589
     49 H           6.3759   -2.6478    0.0000 H       1  UNL1        0.0305
     50 H           5.0717   -3.0215    0.0000 H       1  UNL1        0.0304
     51 H           5.8699   -3.0245    0.0000 H       1  UNL1        0.0304
     52 H           6.9895   -1.7364    0.0000 H       1  UNL1        0.0603
     53 H           7.3971   -0.4182    0.0000 H       1  UNL1        0.0236
     54 H           7.1604    0.4261    0.0000 H       1  UNL1        0.0236
     55 H           6.3161    0.1894    0.0000 H       1  UNL1        0.0236
     56 H           7.4304   -2.0930    0.0000 H       1  UNL1        0.0298
     57 H           8.2224   -2.3402    0.0000 H       1  UNL1        0.0298
     58 H           6.9347   -3.0625    0.0000 H       1  UNL1        0.0233
     59 H           7.7808   -2.8324    0.0000 H       1  UNL1        0.0233
     60 H           7.5506   -1.9863    0.0000 H       1  UNL1        0.0233
     61 H           8.9221   -2.3067    0.0000 H       1  UNL1        0.0405
     62 H           8.8908    0.3931    0.0000 H       1  UNL1        0.1061
     63 H          10.0602   -2.3376    0.0000 H       1  UNL1        0.0607
     64 H          11.0550   -0.9319    0.0000 H       1  UNL1        0.1021
     65 H           2.5158   -3.4602    0.0000 H       1  UNL1        0.0342
     66 H           2.2790   -4.3044    0.0000 H       1  UNL1        0.0342
     67 H           3.1233   -4.5411    0.0000 H       1  UNL1        0.0342
     68 H           2.1605    1.7032    0.0000 H       1  UNL1        0.0342
     69 H           1.4011    1.2648    0.0000 H       1  UNL1        0.0342
     70 H           1.8395    0.5054    0.0000 H       1  UNL1        0.0342
     71 H           7.7448    1.4837    0.0000 H       1  UNL1        0.0280
     72 H           8.5917    1.7107    0.0000 H       1  UNL1        0.0280
     73 H           8.3648    2.5576    0.0000 H       1  UNL1        0.0280
     74 H           6.6518    3.8307    0.0000 H       1  UNL1        0.0574
     75 H           8.3648    3.4838    0.0000 H       1  UNL1        0.0272
     76 H           8.5917    4.3307    0.0000 H       1  UNL1        0.0272
     77 H           7.7448    4.5576    0.0000 H       1  UNL1        0.0272
@<TRIPOS>BOND
     1    13     1    1
     2     1    20    1
     3     2    18    1
     4     2    19    1
     5    16     3    1
     6     3    29    1
     7    15     4    1
     8     4    30    1
     9    19     5    1
    10     5    32    1
    11     6    23    1
    12     6    28    1
    13     7    28    1
    14     7    33    1
    15     8    29    2
    16     9    30    2
    17    10    32    2
    18    11    12    1
    19    11    13    1
    20    11    16    1
    21    11    19    1
    22    12    14    1
    23    12    15    1
    24    12    40    1
    25    13    17    1
    26    13    20    1
    27    14    21    1
    28    14    23    1
    29    14    24    1
    30    15    18    1
    31    15    41    1
    32    16    22    1
    33    16    42    1
    34    17    18    1
    35    17    43    1
    36    17    44    1
    37    18    45    1
    38    19    46    1
    39    20    47    1
    40    20    48    1
    41    21    22    1
    42    21    26    1
    43    21    49    1
    44    22    50    1
    45    22    51    1
    46    23    25    1
    47    23    52    1
    48    24    53    1
    49    24    54    1
    50    24    55    1
    51    25    27    1
    52    25    56    1
    53    25    57    1
    54    26    58    1
    55    26    59    1
    56    26    60    1
    57    27    28    1
    58    27    31    1
    59    27    61    1
    60    28    62    1
    61    29    34    1
    62    30    35    1
    63    31    33    2
    64    31    63    1
    65    32    36    1
    66    33    64    1
    67    34    65    1
    68    34    66    1
    69    34    67    1
    70    35    37    1
    71    35    38    2
    72    36    68    1
    73    36    69    1
    74    36    70    1
    75    37    71    1
    76    37    72    1
    77    37    73    1
    78    38    39    1
    79    38    74    1
    80    39    75    1
    81    39    76    1
    82    39    77    1
