@<TRIPOS>MOLECULE
IMPHY011095
 84 88 0 0 0
SMALL
GASTEIGER

@<TRIPOS>ATOM
      1 O           7.0628    2.4169    0.0000 O.3     1  UNL1       -0.3915
      2 O          10.5929   -0.6073    0.0000 O.3     1  UNL1       -0.3914
      3 O           2.5357   -2.1355    0.0000 O.3     1  UNL1       -0.3912
      4 O          12.2153    1.4737    0.0000 O.2     1  UNL1       -0.2971
      5 C           7.9288   -0.0831    0.0000 C.3     1  UNL1       -0.0184
      6 C           7.0628   -0.5831    0.0000 C.3     1  UNL1       -0.0228
      7 C           7.9288    0.9169    0.0000 C.3     1  UNL1       -0.0032
      8 C           6.1968   -0.0831    0.0000 C.3     1  UNL1       -0.0271
      9 C           8.8228    1.4515    0.0000 C.3     1  UNL1       -0.0203
     10 C           5.2868   -0.5900    0.0000 C.3     1  UNL1       -0.0252
     11 C           9.7288    0.9377    0.0000 C.3     1  UNL1        0.0028
     12 C           7.0628    1.4169    0.0000 C.3     1  UNL1        0.0594
     13 C           8.8228   -0.6178    0.0000 C.3     1  UNL1       -0.0203
     14 C           5.2787   -1.6316    0.0000 C.3     1  UNL1       -0.0278
     15 C           6.1968    0.9169    0.0000 C.3     1  UNL1       -0.0227
     16 C           7.0789   -1.6246    0.0000 C.3     1  UNL1       -0.0466
     17 C           9.7288   -0.1039    0.0000 C.3     1  UNL1        0.0600
     18 C          10.4911    1.6384    0.0000 C.3     1  UNL1        0.0316
     19 C           9.0329    2.4655    0.0000 C.3     1  UNL1       -0.0460
     20 C           6.1808   -2.1524    0.0000 C.3     1  UNL1       -0.0486
     21 C           4.3433   -2.1813    0.0000 C.3     1  UNL1       -0.0056
     22 C           8.2709   -1.0228    0.0000 C.3     1  UNL1       -0.0586
     23 C          10.0619    2.5807    0.0000 C.3     1  UNL1       -0.0401
     24 C           7.7056   -1.3492    0.0000 C.3     1  UNL1       -0.0588
     25 C           4.3599   -0.0259    0.0000 C.3     1  UNL1       -0.0447
     26 C           7.9529    1.9448    0.0000 C.3     1  UNL1       -0.0588
     27 C           5.2945    0.4100    0.0000 C.3     1  UNL1       -0.0590
     28 C           3.4037   -1.6388    0.0000 C.3     1  UNL1        0.0606
     29 C           3.4120   -0.5538    0.0000 C.3     1  UNL1       -0.0258
     30 C          11.1673    0.9016    0.0000 C.3     1  UNL1       -0.0525
     31 C          11.4008    2.0538    0.0000 C.2     1  UNL1        0.1365
     32 C           3.8467   -3.0492    0.0000 C.3     1  UNL1       -0.0572
     33 C           4.8466   -3.0454    0.0000 C.3     1  UNL1       -0.0572
     34 C          11.4960    3.0492    0.0000 C.3     1  UNL1       -0.0055
     35 H           8.6682    0.4976    0.0000 H       1  UNL1        0.0336
     36 H           6.9329    0.3419    0.0000 H       1  UNL1        0.0312
     37 H          10.5071    0.5960    0.0000 H       1  UNL1        0.0340
     38 H           7.5997    1.7269    0.0000 H       1  UNL1        0.0596
     39 H           8.4182   -1.0876    0.0000 H       1  UNL1        0.0296
     40 H           9.2164   -1.0968    0.0000 H       1  UNL1        0.0296
     41 H           5.2820   -2.4816    0.0000 H       1  UNL1        0.0312
     42 H           5.9847    1.4995    0.0000 H       1  UNL1        0.0293
     43 H           5.5862    0.8092    0.0000 H       1  UNL1        0.0293
     44 H           7.2969   -2.2050    0.0000 H       1  UNL1        0.0271
     45 H           7.6880   -1.5091    0.0000 H       1  UNL1        0.0271
     46 H          10.2664    0.2050    0.0000 H       1  UNL1        0.0596
     47 H           9.0290    3.0854    0.0000 H       1  UNL1        0.0271
     48 H           8.4159    2.5268    0.0000 H       1  UNL1        0.0271
     49 H           5.7835   -2.6284    0.0000 H       1  UNL1        0.0268
     50 H           6.5818   -2.6253    0.0000 H       1  UNL1        0.0268
     51 H           7.6884   -1.2349    0.0000 H       1  UNL1        0.0235
     52 H           8.4830   -1.6054    0.0000 H       1  UNL1        0.0235
     53 H           8.8535   -0.8107    0.0000 H       1  UNL1        0.0235
     54 H          10.6500    2.7770    0.0000 H       1  UNL1        0.0275
     55 H           9.9285    3.1862    0.0000 H       1  UNL1        0.0275
     56 H           7.2306   -1.7477    0.0000 H       1  UNL1        0.0235
     57 H           8.1041   -1.8241    0.0000 H       1  UNL1        0.0235
     58 H           8.1805   -0.9506    0.0000 H       1  UNL1        0.0235
     59 H           4.7681    0.4408    0.0000 H       1  UNL1        0.0271
     60 H           3.9700    0.4561    0.0000 H       1  UNL1        0.0271
     61 H           8.2588    2.4842    0.0000 H       1  UNL1        0.0235
     62 H           7.4136    2.2507    0.0000 H       1  UNL1        0.0235
     63 H           7.6471    1.4055    0.0000 H       1  UNL1        0.0235
     64 H           5.9145    0.4052    0.0000 H       1  UNL1        0.0235
     65 H           5.2993    1.0300    0.0000 H       1  UNL1        0.0235
     66 H           4.6745    0.4148    0.0000 H       1  UNL1        0.0235
     67 H           3.4025   -2.2588    0.0000 H       1  UNL1        0.0599
     68 H           3.2075    0.0314    0.0000 H       1  UNL1        0.0290
     69 H           2.8004   -0.6552    0.0000 H       1  UNL1        0.0290
     70 H          10.7105    0.4825    0.0000 H       1  UNL1        0.0239
     71 H          11.5865    0.4448    0.0000 H       1  UNL1        0.0239
     72 H          11.6241    1.3208    0.0000 H       1  UNL1        0.0239
     73 H           6.5259    2.7269    0.0000 H       1  UNL1        0.2098
     74 H           3.3085   -2.7413    0.0000 H       1  UNL1        0.0236
     75 H           3.5387   -3.5874    0.0000 H       1  UNL1        0.0236
     76 H           4.3848   -3.3572    0.0000 H       1  UNL1        0.0236
     77 H           4.3109   -3.3575    0.0000 H       1  UNL1        0.0236
     78 H           5.1587   -3.5811    0.0000 H       1  UNL1        0.0236
     79 H           5.3824   -2.7333    0.0000 H       1  UNL1        0.0236
     80 H          10.5905   -1.2273    0.0000 H       1  UNL1        0.2098
     81 H           2.0000   -1.8234    0.0000 H       1  UNL1        0.2098
     82 H          12.1131    2.9903    0.0000 H       1  UNL1        0.0306
     83 H          11.5549    3.6664    0.0000 H       1  UNL1        0.0306
     84 H          10.8788    3.1082    0.0000 H       1  UNL1        0.0306
@<TRIPOS>BOND
     1    12     1    1
     2     1    73    1
     3    17     2    1
     4     2    80    1
     5    28     3    1
     6     3    81    1
     7     4    31    2
     8     5     6    1
     9     5     7    1
    10     5    13    1
    11     5    22    1
    12     6     8    1
    13     6    16    1
    14     6    24    1
    15     7     9    1
    16     7    12    1
    17     7    35    1
    18     8    10    1
    19     8    15    1
    20     8    36    1
    21     9    11    1
    22     9    19    1
    23     9    26    1
    24    10    14    1
    25    10    25    1
    26    10    27    1
    27    11    17    1
    28    11    18    1
    29    11    37    1
    30    12    15    1
    31    12    38    1
    32    13    17    1
    33    13    39    1
    34    13    40    1
    35    14    20    1
    36    14    21    1
    37    14    41    1
    38    15    42    1
    39    15    43    1
    40    16    20    1
    41    16    44    1
    42    16    45    1
    43    17    46    1
    44    18    23    1
    45    18    30    1
    46    18    31    1
    47    19    23    1
    48    19    47    1
    49    19    48    1
    50    20    49    1
    51    20    50    1
    52    21    28    1
    53    21    32    1
    54    21    33    1
    55    22    51    1
    56    22    52    1
    57    22    53    1
    58    23    54    1
    59    23    55    1
    60    24    56    1
    61    24    57    1
    62    24    58    1
    63    25    29    1
    64    25    59    1
    65    25    60    1
    66    26    61    1
    67    26    62    1
    68    26    63    1
    69    27    64    1
    70    27    65    1
    71    27    66    1
    72    28    29    1
    73    28    67    1
    74    29    68    1
    75    29    69    1
    76    30    70    1
    77    30    71    1
    78    30    72    1
    79    31    34    1
    80    32    74    1
    81    32    75    1
    82    32    76    1
    83    33    77    1
    84    33    78    1
    85    33    79    1
    86    34    82    1
    87    34    83    1
    88    34    84    1
