@<TRIPOS>MOLECULE
IMPHY017732
 30 30 0 0 0
SMALL
GASTEIGER

@<TRIPOS>ATOM
      1 O           3.7320    0.7500    0.0000 O.3     1  UNL1       -0.4643
      2 O           5.4641    0.7500    0.0000 O.2     1  UNL1       -0.2509
      3 C           2.8660   -0.7500    0.0000 C.3     1  UNL1        0.0067
      4 C           3.7320   -0.2500    0.0000 C.3     1  UNL1        0.0964
      5 C           2.8660   -1.7500    0.0000 C.ar    1  UNL1       -0.0442
      6 C           4.5981    2.2500    0.0000 C.3     1  UNL1        0.0447
      7 C           5.4641    2.7500    0.0000 C.3     1  UNL1       -0.0458
      8 C           4.5981    1.2500    0.0000 C.2     1  UNL1        0.3071
      9 C           2.0000   -2.2500    0.0000 C.ar    1  UNL1       -0.0585
     10 C           3.7320   -2.2500    0.0000 C.ar    1  UNL1       -0.0585
     11 C           5.4641    3.7500    0.0000 C.3     1  UNL1       -0.0648
     12 C           2.0000   -3.2500    0.0000 C.ar    1  UNL1       -0.0615
     13 C           3.7320   -3.2500    0.0000 C.ar    1  UNL1       -0.0615
     14 C           2.8660   -3.7500    0.0000 C.ar    1  UNL1       -0.0617
     15 H           2.6540   -0.1674    0.0000 H       1  UNL1        0.0346
     16 H           2.2554   -0.8577    0.0000 H       1  UNL1        0.0346
     17 H           3.9441   -0.8326    0.0000 H       1  UNL1        0.0701
     18 H           4.3426   -0.1423    0.0000 H       1  UNL1        0.0701
     19 H           4.3860    2.8326    0.0000 H       1  UNL1        0.0377
     20 H           3.9875    2.1423    0.0000 H       1  UNL1        0.0377
     21 H           5.6762    2.1674    0.0000 H       1  UNL1        0.0268
     22 H           6.0747    2.8577    0.0000 H       1  UNL1        0.0268
     23 H           1.4631   -1.9400    0.0000 H       1  UNL1        0.0620
     24 H           4.2690   -1.9400    0.0000 H       1  UNL1        0.0620
     25 H           6.0841    3.7500    0.0000 H       1  UNL1        0.0230
     26 H           5.4641    4.3700    0.0000 H       1  UNL1        0.0230
     27 H           4.8441    3.7500    0.0000 H       1  UNL1        0.0230
     28 H           1.4631   -3.5600    0.0000 H       1  UNL1        0.0618
     29 H           4.2690   -3.5600    0.0000 H       1  UNL1        0.0618
     30 H           2.8660   -4.3700    0.0000 H       1  UNL1        0.0618
@<TRIPOS>BOND
     1     1     4    1
     2     1     8    1
     3     2     8    2
     4     3     4    1
     5     3     5    1
     6     3    15    1
     7     3    16    1
     8     4    17    1
     9     4    18    1
    10     5     9   ar
    11     5    10   ar
    12     6     7    1
    13     6     8    1
    14     6    19    1
    15     6    20    1
    16     7    11    1
    17     7    21    1
    18     7    22    1
    19     9    12   ar
    20     9    23    1
    21    10    13   ar
    22    10    24    1
    23    11    25    1
    24    11    26    1
    25    11    27    1
    26    12    14   ar
    27    12    28    1
    28    13    14   ar
    29    13    29    1
    30    14    30    1
