@<TRIPOS>MOLECULE
IMPHY010692
 41 45 0 0 0
SMALL
GASTEIGER

@<TRIPOS>ATOM
      1 O           9.2485   -4.0756    0.0000 O.3     1  UNL1       -0.4470
      2 C           8.0789   -3.4004    0.0000 C.3     1  UNL1        0.1973
      3 C           6.9213   -4.0515    0.0000 C.3     1  UNL1        0.0561
      4 C           5.7637   -3.4004    0.0000 C.3     1  UNL1        0.0076
      5 C           4.6182   -4.0515    0.0000 C.3     1  UNL1        0.0006
      6 C           4.6182   -5.4020    0.0000 C.3     1  UNL1        0.0019
      7 C           5.7637   -6.0652    0.0000 C.2     1  UNL1       -0.0548
      8 C           6.9213   -5.4020    0.0000 C.2     1  UNL1       -0.0383
      9 C           8.0789   -6.0652    0.0000 C.3     1  UNL1        0.1311
     10 C           9.2485   -5.4020    0.0000 C.2     1  UNL1        0.3213
     11 C           3.4607   -6.0652    0.0000 C.3     1  UNL1        0.0520
     12 C           2.3031   -6.7163    0.0000 C.3     1  UNL1        0.0210
     13 C           2.3031   -8.0548    0.0000 C.3     1  UNL1        0.0383
     14 C           3.4607   -8.7179    0.0000 C.3     1  UNL1        0.1760
     15 C           4.6182   -8.0548    0.0000 C.3     1  UNL1        0.1016
     16 C           4.6182   -6.7163    0.0000 C.2     1  UNL1        0.1533
     17 C           5.7637   -7.3916    0.0000 C.3     1  UNL1        0.0320
     18 C           8.0789   -2.0499    0.0000 C.ar    1  UNL1        0.0583
     19 C           9.1641   -1.2661    0.0000 C.ar    1  UNL1        0.1789
     20 O           8.7541    0.0000    0.0000 O.2     1  UNL1       -0.4475
     21 C           7.4036    0.0000    0.0000 C.ar    1  UNL1        0.1795
     22 C           6.9936   -1.2661    0.0000 C.ar    1  UNL1        0.0430
     23 C           6.9213   -2.6407    0.0000 C.3     1  UNL1        0.0080
     24 O          10.3940   -6.0652    0.0000 O.2     1  UNL1       -0.2497
     25 C           3.4607   -4.7629    0.0000 C.3     1  UNL1        0.0074
     26 C           1.1455   -6.0652    0.0000 C.3     1  UNL1        0.1101
     27 C           1.1455   -4.7267    0.0000 C.2     1  UNL1        0.3171
     28 O           2.2910   -4.0756    0.0000 O.2     1  UNL1       -0.2501
     29 C           1.6519   -9.2003    0.0000 C.3     1  UNL1        0.0036
     30 C           1.1576   -8.0548    0.0000 C.3     1  UNL1        0.0036
     31 O           3.4607  -10.0684    0.0000 O.3     1  UNL1       -0.4490
     32 C           4.6182  -10.7437    0.0000 C.2     1  UNL1        0.3368
     33 O           4.6182  -12.0580    0.0000 O.2     1  UNL1       -0.2453
     34 O           3.4727   -7.4398    0.0000 O.2     1  UNL1       -0.2960
     35 O           0.0000   -4.0756    0.0000 O.3     1  UNL1       -0.4444
     36 C           0.0000   -2.7372    0.0000 C.3     1  UNL1        0.2556
     37 C           5.7637  -10.0684    0.0000 C.2     1  UNL1        0.0495
     38 C           6.9213  -10.7437    0.0000 C.2     1  UNL1       -0.0236
     39 C           8.0789  -10.0684    0.0000 C.3     1  UNL1        0.0306
     40 C           5.7637   -8.7421    0.0000 C.3     1  UNL1        0.0375
     41 H           5.7637   -4.7870    0.0000 H       1  UNL1        0.0362
@<TRIPOS>BOND
     1     1     2    1
     2     1    10    1
     3     2     3    1
     4     2    18    1
     5     3     4    1
     6     3     8    1
     7     3    23    1
     8     4     5    1
     9     5     6    1
    10     6     7    1
    11     6    11    1
    12     6    41    1
    13     7     8    2
    14     7    17    1
    15     8     9    1
    16     9    10    1
    17    10    24    2
    18    11    16    1
    19    11    12    1
    20    11    25    1
    21    12    13    1
    22    12    26    1
    23    13    14    1
    24    13    29    1
    25    13    30    1
    26    14    15    1
    27    14    31    1
    28    15    17    1
    29    15    16    1
    30    16    34    2
    31    18    22   ar
    32    18    19   ar
    33    19    20   ar
    34    20    21   ar
    35    21    22   ar
    36    26    27    1
    37    27    35    1
    38    27    28    2
    39    31    32    1
    40    32    37    1
    41    32    33    2
    42    35    36    1
    43    37    38    2
    44    37    40    1
    45    38    39    1
