@<TRIPOS>MOLECULE
IMPHY006159
 30 29 0 0 0
SMALL
GASTEIGER

@<TRIPOS>ATOM
      1 O           2.5369   -0.9050    0.0000 O.3     1  UNL1       -0.3848
      2 O           6.0010    1.0950    0.0000 O.3     1  UNL1       -0.3875
      3 C           4.2690    0.0950    0.0000 C.3     1  UNL1       -0.0180
      4 C           3.4030   -0.4050    0.0000 C.3     1  UNL1        0.0812
      5 C           5.1350   -0.4050    0.0000 C.3     1  UNL1       -0.0201
      6 C           6.0010    0.0950    0.0000 C.3     1  UNL1        0.0759
      7 C           3.9030   -1.2710    0.0000 C.3     1  UNL1       -0.0325
      8 C           2.9030    0.4610    0.0000 C.2     1  UNL1       -0.0602
      9 C           6.8671   -0.4050    0.0000 C.2     1  UNL1       -0.0516
     10 C           7.7331    0.0950    0.0000 C.3     1  UNL1       -0.0416
     11 C           3.4030    1.3270    0.0000 C.2     1  UNL1       -0.1000
     12 C           6.8671   -1.4050    0.0000 C.2     1  UNL1       -0.0973
     13 H           4.6675    0.5699    0.0000 H       1  UNL1        0.0297
     14 H           3.8705    0.5699    0.0000 H       1  UNL1        0.0297
     15 H           4.7365   -0.8799    0.0000 H       1  UNL1        0.0294
     16 H           5.5335   -0.8799    0.0000 H       1  UNL1        0.0294
     17 H           6.7372    0.5200    0.0000 H       1  UNL1        0.0640
     18 H           3.3660   -1.5810    0.0000 H       1  UNL1        0.0260
     19 H           4.2130   -1.8080    0.0000 H       1  UNL1        0.0260
     20 H           4.4399   -0.9610    0.0000 H       1  UNL1        0.0260
     21 H           2.2830    0.4610    0.0000 H       1  UNL1        0.0594
     22 H           2.0000   -0.5950    0.0000 H       1  UNL1        0.2106
     23 H           8.0431   -0.4419    0.0000 H       1  UNL1        0.0275
     24 H           8.2700    0.4050    0.0000 H       1  UNL1        0.0275
     25 H           7.4231    0.6319    0.0000 H       1  UNL1        0.0275
     26 H           6.5380    1.4050    0.0000 H       1  UNL1        0.2102
     27 H           6.3301   -1.7150    0.0000 H       1  UNL1        0.0535
     28 H           7.4040   -1.7150    0.0000 H       1  UNL1        0.0535
     29 H           4.0230    1.3270    0.0000 H       1  UNL1        0.0533
     30 H           3.0930    1.8640    0.0000 H       1  UNL1        0.0533
@<TRIPOS>BOND
     1     1     4    1
     2     1    22    1
     3     2     6    1
     4     2    26    1
     5     3     4    1
     6     3     5    1
     7     3    13    1
     8     3    14    1
     9     4     7    1
    10     4     8    1
    11     5     6    1
    12     5    15    1
    13     5    16    1
    14     6     9    1
    15     6    17    1
    16     7    18    1
    17     7    19    1
    18     7    20    1
    19     8    11    2
    20     8    21    1
    21     9    10    1
    22     9    12    2
    23    10    23    1
    24    10    24    1
    25    10    25    1
    26    11    29    1
    27    11    30    1
    28    12    27    1
    29    12    28    1
