@<TRIPOS>MOLECULE
IMPHY011105
 35 36 0 0 0
SMALL
GASTEIGER

@<TRIPOS>ATOM
      1 O           6.3580   -0.1897    0.0000 O.2     1  UNL1       -0.4216
      2 O           2.8660   -0.1550    0.0000 O.3     1  UNL1       -0.4946
      3 O           4.5981    2.8450    0.0000 O.3     1  UNL1       -0.5059
      4 O           8.1282   -0.1792    0.0000 O.2     1  UNL1       -0.2452
      5 C           4.5981   -0.1550    0.0000 C.ar    1  UNL1        0.0411
      6 C           4.5981   -1.1550    0.0000 C.3     1  UNL1       -0.0023
      7 C           5.4641    0.3450    0.0000 C.ar    1  UNL1        0.1495
      8 C           5.4641    1.3450    0.0000 C.ar    1  UNL1        0.0595
      9 C           3.7320    0.3450    0.0000 C.ar    1  UNL1        0.1305
     10 C           4.5981    1.8450    0.0000 C.ar    1  UNL1        0.1310
     11 C           3.7320    1.3450    0.0000 C.ar    1  UNL1        0.0226
     12 C           3.7320   -1.6550    0.0000 C.2     1  UNL1       -0.0807
     13 C           6.3580    1.8797    0.0000 C.ar    1  UNL1       -0.0408
     14 C           3.7320   -2.6550    0.0000 C.2     1  UNL1       -0.0793
     15 C           7.2641    1.3658    0.0000 C.ar    1  UNL1        0.0237
     16 C           7.2641    0.3242    0.0000 C.ar    1  UNL1        0.3372
     17 C           2.8660   -3.1550    0.0000 C.3     1  UNL1       -0.0440
     18 C           4.5981   -3.1550    0.0000 C.3     1  UNL1       -0.0440
     19 C           2.0000    0.3450    0.0000 C.3     1  UNL1        0.0788
     20 H           4.8101   -1.7376    0.0000 H       1  UNL1        0.0358
     21 H           5.2087   -1.0473    0.0000 H       1  UNL1        0.0358
     22 H           3.1951    1.6550    0.0000 H       1  UNL1        0.0691
     23 H           3.1951   -1.3450    0.0000 H       1  UNL1        0.0575
     24 H           6.3509    2.4996    0.0000 H       1  UNL1        0.0628
     25 H           7.7998    1.6779    0.0000 H       1  UNL1        0.0689
     26 H           4.2881   -3.6919    0.0000 H       1  UNL1        0.0274
     27 H           5.1350   -3.4650    0.0000 H       1  UNL1        0.0274
     28 H           2.5560   -2.6181    0.0000 H       1  UNL1        0.0274
     29 H           2.3291   -3.4650    0.0000 H       1  UNL1        0.0274
     30 H           3.1760   -3.6919    0.0000 H       1  UNL1        0.0274
     31 H           4.9081   -2.6181    0.0000 H       1  UNL1        0.0274
     32 H           4.0611    3.1550    0.0000 H       1  UNL1        0.2922
     33 H           2.3100    0.8819    0.0000 H       1  UNL1        0.0660
     34 H           1.4631    0.6550    0.0000 H       1  UNL1        0.0660
     35 H           1.6900   -0.1919    0.0000 H       1  UNL1        0.0660
@<TRIPOS>BOND
     1     1     7   ar
     2     1    16   ar
     3     2     9    1
     4     2    19    1
     5     3    10    1
     6     3    32    1
     7     4    16    2
     8     5     6    1
     9     5     7   ar
    10     5     9   ar
    11     6    12    1
    12     6    20    1
    13     6    21    1
    14     7     8   ar
    15     8    10   ar
    16     8    13   ar
    17     9    11   ar
    18    10    11   ar
    19    11    22    1
    20    12    14    2
    21    12    23    1
    22    13    15   ar
    23    13    24    1
    24    14    17    1
    25    14    18    1
    26    15    16   ar
    27    15    25    1
    28    17    28    1
    29    17    29    1
    30    17    30    1
    31    18    26    1
    32    18    27    1
    33    18    31    1
    34    19    33    1
    35    19    34    1
    36    19    35    1
