@<TRIPOS>MOLECULE
IMPHY000560
 134 142 0 0 0
SMALL
GASTEIGER

@<TRIPOS>ATOM
      1 O          10.8882    4.0403    0.0000 O.3     1  UNL1       -0.3447
      2 O          10.8378    5.1213    0.0000 O.3     1  UNL1       -0.3198
      3 O           9.4651   -4.2038    0.0000 O.3     1  UNL1       -0.3451
      4 O          11.5375    6.7057    0.0000 O.3     1  UNL1       -0.3666
      5 O           7.7331   -4.2038    0.0000 O.3     1  UNL1       -0.3405
      6 O           9.4651   -6.2038    0.0000 O.3     1  UNL1       -0.3378
      7 O           7.7331   -7.2038    0.0000 O.3     1  UNL1       -0.3864
      8 O           6.0010   -6.2038    0.0000 O.3     1  UNL1       -0.3401
      9 O          10.3312   -4.7038    0.0000 O.3     1  UNL1       -0.3431
     10 O           6.0010   -3.2038    0.0000 O.3     1  UNL1       -0.3924
     11 O           5.1350   -4.7038    0.0000 O.3     1  UNL1       -0.3431
     12 O          11.1972   -7.2038    0.0000 O.3     1  UNL1       -0.3841
     13 O          12.9292   -6.2038    0.0000 O.3     1  UNL1       -0.3864
     14 O           4.2690   -7.2038    0.0000 O.3     1  UNL1       -0.3841
     15 O          12.9292   -4.2038    0.0000 O.3     1  UNL1       -0.3866
     16 O           2.5369   -6.2038    0.0000 O.3     1  UNL1       -0.3864
     17 O           2.5369   -4.2038    0.0000 O.3     1  UNL1       -0.3866
     18 C           9.4944    1.9931    0.0000 C.3     1  UNL1       -0.0233
     19 C          10.3623    1.4965    0.0000 C.3     1  UNL1       -0.0295
     20 C           9.6999    2.9657    0.0000 C.3     1  UNL1       -0.0015
     21 C          10.3662    0.4965    0.0000 C.3     1  UNL1       -0.0306
     22 C          10.6882    3.0726    0.0000 C.3     1  UNL1        0.0660
     23 C           9.5021   -0.0069    0.0000 C.3     1  UNL1       -0.0285
     24 C          11.0968    2.1664    0.0000 C.3     1  UNL1       -0.0226
     25 C           8.6303    1.4898    0.0000 C.3     1  UNL1       -0.0467
     26 C           9.2976    3.8683    0.0000 C.3     1  UNL1        0.0161
     27 C           8.6342    0.4898    0.0000 C.3     1  UNL1       -0.0486
     28 C           9.4901   -1.0484    0.0000 C.3     1  UNL1       -0.0078
     29 C          10.0305    4.5311    0.0000 C.3     1  UNL1        0.1762
     30 C           8.6264    2.4898    0.0000 C.3     1  UNL1       -0.0590
     31 C          11.2781   -0.0069    0.0000 C.3     1  UNL1       -0.0311
     32 C          10.3901   -1.5727    0.0000 C.2     1  UNL1       -0.0648
     33 C           8.5402   -1.5727    0.0000 C.3     1  UNL1       -0.0413
     34 C           8.3192    4.0750    0.0000 C.3     1  UNL1       -0.0572
     35 C           9.1158    4.9351    0.0000 C.3     1  UNL1        0.0022
     36 C          11.2902   -1.0484    0.0000 C.2     1  UNL1       -0.0839
     37 C           8.6260   -0.5451    0.0000 C.3     1  UNL1       -0.0556
     38 C          10.4027   -2.6576    0.0000 C.3     1  UNL1       -0.0047
     39 C           8.5276   -2.6576    0.0000 C.3     1  UNL1       -0.0254
     40 C           9.4651   -3.2038    0.0000 C.3     1  UNL1        0.0655
     41 C           9.0083    5.9293    0.0000 C.3     1  UNL1       -0.0410
     42 C          10.7303    6.1155    0.0000 C.3     1  UNL1        0.1620
     43 C           9.8155    6.5195    0.0000 C.3     1  UNL1        0.0074
     44 C           9.7080    7.5138    0.0000 C.3     1  UNL1       -0.0578
     45 C           8.5991   -4.7038    0.0000 C.3     1  UNL1        0.1886
     46 C           8.5991   -5.7038    0.0000 C.3     1  UNL1        0.1406
     47 C           7.7331   -6.2038    0.0000 C.3     1  UNL1        0.1148
     48 C           6.8671   -4.7038    0.0000 C.3     1  UNL1        0.1134
     49 C           6.8671   -5.7038    0.0000 C.3     1  UNL1        0.1184
     50 C           6.0010   -4.2038    0.0000 C.3     1  UNL1        0.0730
     51 C          10.3312   -5.7038    0.0000 C.3     1  UNL1        0.1884
     52 C          11.1972   -6.2038    0.0000 C.3     1  UNL1        0.1341
     53 C           5.1350   -5.7038    0.0000 C.3     1  UNL1        0.1883
     54 C          12.0632   -5.7038    0.0000 C.3     1  UNL1        0.1140
     55 C          11.1972   -4.2038    0.0000 C.3     1  UNL1        0.0873
     56 C           4.2690   -6.2038    0.0000 C.3     1  UNL1        0.1341
     57 C          12.0632   -4.7038    0.0000 C.3     1  UNL1        0.1095
     58 C           3.4030   -5.7038    0.0000 C.3     1  UNL1        0.1140
     59 C           4.2690   -4.2038    0.0000 C.3     1  UNL1        0.0873
     60 C           3.4030   -4.7038    0.0000 C.3     1  UNL1        0.1095
     61 C          11.1972   -3.2038    0.0000 C.3     1  UNL1       -0.0361
     62 C           4.2690   -3.2038    0.0000 C.3     1  UNL1       -0.0361
     63 H          11.1406    1.1548    0.0000 H       1  UNL1        0.0310
     64 H           8.8546    2.8762    0.0000 H       1  UNL1        0.0335
     65 H          11.0974    0.9300    0.0000 H       1  UNL1        0.0310
     66 H          11.5330    3.1658    0.0000 H       1  UNL1        0.0600
     67 H          10.2366   -0.4347    0.0000 H       1  UNL1        0.0312
     68 H          11.4642    1.6670    0.0000 H       1  UNL1        0.0293
     69 H          11.6321    2.4792    0.0000 H       1  UNL1        0.0293
     70 H           8.4160    2.0716    0.0000 H       1  UNL1        0.0271
     71 H           8.0201    1.3798    0.0000 H       1  UNL1        0.0271
     72 H           8.9078    3.3862    0.0000 H       1  UNL1        0.0354
     73 H           8.0232    0.5951    0.0000 H       1  UNL1        0.0268
     74 H           8.4244   -0.0936    0.0000 H       1  UNL1        0.0268
     75 H           8.9344    3.0279    0.0000 H       1  UNL1        0.0235
     76 H           8.0883    2.7977    0.0000 H       1  UNL1        0.0235
     77 H           8.3185    1.9517    0.0000 H       1  UNL1        0.0235
     78 H          11.8902   -0.1059    0.0000 H       1  UNL1        0.0310
     79 H          11.4804    0.5792    0.0000 H       1  UNL1        0.0310
     80 H           8.3379   -0.9866    0.0000 H       1  UNL1        0.0274
     81 H           7.9281   -1.6717    0.0000 H       1  UNL1        0.0274
     82 H           8.4473    4.6816    0.0000 H       1  UNL1        0.0234
     83 H           7.7125    4.2032    0.0000 H       1  UNL1        0.0234
     84 H           8.1910    3.4684    0.0000 H       1  UNL1        0.0234
     85 H           8.4972    4.9765    0.0000 H       1  UNL1        0.0317
     86 H           8.9676    4.3331    0.0000 H       1  UNL1        0.0317
     87 H          11.8295   -1.3543    0.0000 H       1  UNL1        0.0572
     88 H           8.9380   -0.0093    0.0000 H       1  UNL1        0.0238
     89 H           8.0902   -0.2330    0.0000 H       1  UNL1        0.0238
     90 H           8.3139   -1.0808    0.0000 H       1  UNL1        0.0238
     91 H          10.6185   -3.2389    0.0000 H       1  UNL1        0.0335
     92 H          11.0123   -2.5445    0.0000 H       1  UNL1        0.0335
     93 H           7.9180   -2.5445    0.0000 H       1  UNL1        0.0290
     94 H           8.3118   -3.2389    0.0000 H       1  UNL1        0.0290
     95 H          10.0027   -3.5127    0.0000 H       1  UNL1        0.0600
     96 H           8.7348    6.4858    0.0000 H       1  UNL1        0.0271
     97 H           8.4128    5.7567    0.0000 H       1  UNL1        0.0271
     98 H          10.6636    6.7319    0.0000 H       1  UNL1        0.0911
     99 H           9.2484    6.7700    0.0000 H       1  UNL1        0.0347
    100 H          10.3244    7.5804    0.0000 H       1  UNL1        0.0234
    101 H           9.6414    8.1302    0.0000 H       1  UNL1        0.0234
    102 H           9.0916    7.4471    0.0000 H       1  UNL1        0.0234
    103 H          11.4709    7.3222    0.0000 H       1  UNL1        0.2125
    104 H           8.5991   -4.0838    0.0000 H       1  UNL1        0.0938
    105 H           8.5991   -6.3238    0.0000 H       1  UNL1        0.0675
    106 H           7.1962   -6.5138    0.0000 H       1  UNL1        0.0648
    107 H           6.8671   -4.0838    0.0000 H       1  UNL1        0.0647
    108 H           6.3301   -5.3938    0.0000 H       1  UNL1        0.0651
    109 H           5.3905   -4.0961    0.0000 H       1  UNL1        0.0584
    110 H           5.7890   -4.7864    0.0000 H       1  UNL1        0.0584
    111 H           9.7942   -5.3938    0.0000 H       1  UNL1        0.0938
    112 H           7.1962   -7.5138    0.0000 H       1  UNL1        0.2100
    113 H          11.7341   -6.5138    0.0000 H       1  UNL1        0.0671
    114 H           5.1350   -6.3238    0.0000 H       1  UNL1        0.0938
    115 H           5.4641   -2.8938    0.0000 H       1  UNL1        0.2095
    116 H          12.6002   -5.3938    0.0000 H       1  UNL1        0.0648
    117 H          10.6603   -3.8938    0.0000 H       1  UNL1        0.0621
    118 H           3.7320   -6.5138    0.0000 H       1  UNL1        0.0671
    119 H          12.0632   -4.0838    0.0000 H       1  UNL1        0.0646
    120 H           2.8660   -5.3938    0.0000 H       1  UNL1        0.0648
    121 H          11.7341   -7.5138    0.0000 H       1  UNL1        0.2101
    122 H           4.8059   -3.8938    0.0000 H       1  UNL1        0.0621
    123 H           3.4030   -4.0838    0.0000 H       1  UNL1        0.0646
    124 H          11.8172   -3.2038    0.0000 H       1  UNL1        0.0255
    125 H          11.1972   -2.5838    0.0000 H       1  UNL1        0.0255
    126 H          10.5772   -3.2038    0.0000 H       1  UNL1        0.0255
    127 H          13.4662   -5.8938    0.0000 H       1  UNL1        0.2100
    128 H           3.7320   -7.5138    0.0000 H       1  UNL1        0.2101
    129 H          13.4662   -4.5138    0.0000 H       1  UNL1        0.2100
    130 H           4.8890   -3.2038    0.0000 H       1  UNL1        0.0255
    131 H           4.2690   -2.5838    0.0000 H       1  UNL1        0.0255
    132 H           3.6490   -3.2038    0.0000 H       1  UNL1        0.0255
    133 H           2.0000   -5.8938    0.0000 H       1  UNL1        0.2100
    134 H           2.5369   -3.5838    0.0000 H       1  UNL1        0.2100
@<TRIPOS>BOND
     1     1    22    1
     2    29     1    1
     3     2    29    1
     4     2    42    1
     5    40     3    1
     6    45     3    1
     7    42     4    1
     8     4   103    1
     9     5    45    1
    10     5    48    1
    11    46     6    1
    12    51     6    1
    13    47     7    1
    14     7   112    1
    15    49     8    1
    16    53     8    1
    17     9    51    1
    18     9    55    1
    19    10    50    1
    20    10   115    1
    21    11    53    1
    22    11    59    1
    23    52    12    1
    24    12   121    1
    25    54    13    1
    26    13   127    1
    27    56    14    1
    28    14   128    1
    29    57    15    1
    30    15   129    1
    31    58    16    1
    32    16   133    1
    33    60    17    1
    34    17   134    1
    35    18    19    1
    36    18    20    1
    37    18    25    1
    38    18    30    1
    39    19    21    1
    40    19    24    1
    41    19    63    1
    42    20    22    1
    43    20    26    1
    44    20    64    1
    45    21    23    1
    46    21    31    1
    47    21    65    1
    48    22    24    1
    49    22    66    1
    50    23    27    1
    51    23    28    1
    52    23    67    1
    53    24    68    1
    54    24    69    1
    55    25    27    1
    56    25    70    1
    57    25    71    1
    58    26    29    1
    59    26    34    1
    60    26    72    1
    61    27    73    1
    62    27    74    1
    63    28    32    1
    64    28    33    1
    65    28    37    1
    66    29    35    1
    67    30    75    1
    68    30    76    1
    69    30    77    1
    70    31    36    1
    71    31    78    1
    72    31    79    1
    73    32    36    2
    74    32    38    1
    75    33    39    1
    76    33    80    1
    77    33    81    1
    78    34    82    1
    79    34    83    1
    80    34    84    1
    81    35    41    1
    82    35    85    1
    83    35    86    1
    84    36    87    1
    85    37    88    1
    86    37    89    1
    87    37    90    1
    88    38    40    1
    89    38    91    1
    90    38    92    1
    91    39    40    1
    92    39    93    1
    93    39    94    1
    94    40    95    1
    95    41    43    1
    96    41    96    1
    97    41    97    1
    98    42    43    1
    99    42    98    1
   100    43    44    1
   101    43    99    1
   102    44   100    1
   103    44   101    1
   104    44   102    1
   105    45    46    1
   106    45   104    1
   107    46    47    1
   108    46   105    1
   109    47    49    1
   110    47   106    1
   111    48    49    1
   112    48    50    1
   113    48   107    1
   114    49   108    1
   115    50   109    1
   116    50   110    1
   117    51    52    1
   118    51   111    1
   119    52    54    1
   120    52   113    1
   121    53    56    1
   122    53   114    1
   123    54    57    1
   124    54   116    1
   125    55    57    1
   126    55    61    1
   127    55   117    1
   128    56    58    1
   129    56   118    1
   130    57   119    1
   131    58    60    1
   132    58   120    1
   133    59    60    1
   134    59    62    1
   135    59   122    1
   136    60   123    1
   137    61   124    1
   138    61   125    1
   139    61   126    1
   140    62   130    1
   141    62   131    1
   142    62   132    1
