@<TRIPOS>MOLECULE
IMPHY010412
 55 58 0 0 0
SMALL
GASTEIGER

@<TRIPOS>ATOM
      1 O           5.1350   -1.2857    0.0000 O.3     1  UNL1       -0.3313
      2 O           6.8671   -1.2857    0.0000 O.3     1  UNL1       -0.4532
      3 O           5.1350   -4.2857    0.0000 O.3     1  UNL1       -0.3864
      4 O           3.4030   -3.2857    0.0000 O.3     1  UNL1       -0.3865
      5 O           6.8671   -3.2857    0.0000 O.3     1  UNL1       -0.3829
      6 O           2.5369   -1.7857    0.0000 O.3     1  UNL1       -0.3924
      7 O           7.7331    1.2143    0.0000 O.2     1  UNL1       -0.4470
      8 O           5.1350   -0.2857    0.0000 O.2     1  UNL1       -0.2830
      9 O           4.2308    1.2112    0.0000 O.3     1  UNL1       -0.5058
     10 O           7.7549    3.2458    0.0000 O.3     1  UNL1       -0.5009
     11 O           5.9889    4.2836    0.0000 O.3     1  UNL1       -0.5031
     12 O           9.4651   -2.7857    0.0000 O.3     1  UNL1       -0.5032
     13 O          11.1972    0.2143    0.0000 O.3     1  UNL1       -0.5032
     14 O          11.1972   -1.7857    0.0000 O.3     1  UNL1       -0.5009
     15 C           5.1350   -3.2857    0.0000 C.3     1  UNL1        0.1152
     16 C           4.2690   -2.7857    0.0000 C.3     1  UNL1        0.1120
     17 C           6.0010   -2.7857    0.0000 C.3     1  UNL1        0.1454
     18 C           4.2690   -1.7857    0.0000 C.3     1  UNL1        0.1140
     19 C           6.0010   -1.7857    0.0000 C.3     1  UNL1        0.2311
     20 C           3.4030   -1.2857    0.0000 C.3     1  UNL1        0.0731
     21 C           6.8671   -0.2857    0.0000 C.ar    1  UNL1        0.2138
     22 C           7.7331    0.2143    0.0000 C.ar    1  UNL1        0.1813
     23 C           6.0010    0.2143    0.0000 C.ar    1  UNL1        0.2383
     24 C           6.0010    1.2143    0.0000 C.ar    1  UNL1        0.1128
     25 C           6.8671    1.7143    0.0000 C.ar    1  UNL1        0.1879
     26 C           8.5991   -0.2857    0.0000 C.ar    1  UNL1        0.0282
     27 C           5.0910    1.7212    0.0000 C.ar    1  UNL1        0.1350
     28 C           6.8831    2.7558    0.0000 C.ar    1  UNL1        0.2024
     29 C           9.4651    0.2143    0.0000 C.ar    1  UNL1       -0.0055
     30 C           8.5991   -1.2857    0.0000 C.ar    1  UNL1       -0.0055
     31 C           5.0830    2.7628    0.0000 C.ar    1  UNL1        0.0259
     32 C           5.9851    3.2836    0.0000 C.ar    1  UNL1        0.1655
     33 C           9.4651   -1.7857    0.0000 C.ar    1  UNL1        0.1626
     34 C          10.3312   -0.2857    0.0000 C.ar    1  UNL1        0.1626
     35 C          10.3312   -1.2857    0.0000 C.ar    1  UNL1        0.2006
     36 H           5.6720   -3.5957    0.0000 H       1  UNL1        0.0648
     37 H           4.2690   -3.4057    0.0000 H       1  UNL1        0.0647
     38 H           6.5380   -2.4757    0.0000 H       1  UNL1        0.0683
     39 H           4.2690   -1.1657    0.0000 H       1  UNL1        0.0647
     40 H           6.0010   -1.1657    0.0000 H       1  UNL1        0.1084
     41 H           3.8015   -0.8107    0.0000 H       1  UNL1        0.0584
     42 H           3.0044   -0.8107    0.0000 H       1  UNL1        0.0584
     43 H           4.5981   -4.5957    0.0000 H       1  UNL1        0.2100
     44 H           3.4030   -3.9057    0.0000 H       1  UNL1        0.2100
     45 H           6.8671   -3.9057    0.0000 H       1  UNL1        0.2102
     46 H           2.0000   -1.4757    0.0000 H       1  UNL1        0.2095
     47 H           9.4651    0.8343    0.0000 H       1  UNL1        0.0662
     48 H           8.0622   -1.5957    0.0000 H       1  UNL1        0.0662
     49 H           4.5449    3.0707    0.0000 H       1  UNL1        0.0692
     50 H           3.6904    1.5150    0.0000 H       1  UNL1        0.2922
     51 H           7.7620    3.8658    0.0000 H       1  UNL1        0.2924
     52 H           5.4532    4.5957    0.0000 H       1  UNL1        0.2923
     53 H           8.9282   -3.0957    0.0000 H       1  UNL1        0.2923
     54 H          11.1972    0.8343    0.0000 H       1  UNL1        0.2923
     55 H          11.1972   -2.4057    0.0000 H       1  UNL1        0.2924
@<TRIPOS>BOND
     1     1    18    1
     2     1    19    1
     3    19     2    1
     4     2    21    1
     5    15     3    1
     6     3    43    1
     7    16     4    1
     8     4    44    1
     9    17     5    1
    10     5    45    1
    11     6    20    1
    12     6    46    1
    13     7    22   ar
    14     7    25   ar
    15     8    23    2
    16     9    27    1
    17     9    50    1
    18    10    28    1
    19    10    51    1
    20    11    32    1
    21    11    52    1
    22    12    33    1
    23    12    53    1
    24    13    34    1
    25    13    54    1
    26    14    35    1
    27    14    55    1
    28    15    16    1
    29    15    17    1
    30    15    36    1
    31    16    18    1
    32    16    37    1
    33    17    19    1
    34    17    38    1
    35    18    20    1
    36    18    39    1
    37    19    40    1
    38    20    41    1
    39    20    42    1
    40    21    22   ar
    41    21    23   ar
    42    22    26    1
    43    23    24   ar
    44    24    25   ar
    45    24    27   ar
    46    25    28   ar
    47    26    29   ar
    48    26    30   ar
    49    27    31   ar
    50    28    32   ar
    51    29    34   ar
    52    29    47    1
    53    30    33   ar
    54    30    48    1
    55    31    32   ar
    56    31    49    1
    57    33    35   ar
    58    34    35   ar
