@<TRIPOS>MOLECULE
IMPHY000830
 52 54 0 0 0
SMALL
GASTEIGER

@<TRIPOS>ATOM
      1 O           6.0682    0.3246    0.0000 O.3     1  UNL1       -0.4828
      2 O           8.6663   -2.1754    0.0000 O.3     1  UNL1       -0.4912
      3 O           6.0682    3.3246    0.0000 O.2     1  UNL1       -0.2917
      4 O          10.3984   -1.1754    0.0000 O.3     1  UNL1       -0.4914
      5 O           4.3198    3.3592    0.0000 O.3     1  UNL1       -0.5058
      6 O           2.5381    0.3005    0.0000 O.3     1  UNL1       -0.5065
      7 C           6.9343    0.8246    0.0000 C.3     1  UNL1        0.1325
      8 C           7.8003    0.3246    0.0000 C.ar    1  UNL1        0.0002
      9 C           6.9343    1.8246    0.0000 C.3     1  UNL1        0.0520
     10 C           7.8003   -0.6754    0.0000 C.ar    1  UNL1        0.0083
     11 C           6.0682    2.3246    0.0000 C.2     1  UNL1        0.1740
     12 C           5.2022    1.8246    0.0000 C.ar    1  UNL1        0.1007
     13 C           5.2022    0.8246    0.0000 C.ar    1  UNL1        0.1389
     14 C           6.9343   -1.1754    0.0000 C.3     1  UNL1       -0.0053
     15 C           8.6663    0.8246    0.0000 C.ar    1  UNL1       -0.0511
     16 C           8.6663   -1.1754    0.0000 C.ar    1  UNL1        0.1653
     17 C           9.5323   -0.6754    0.0000 C.ar    1  UNL1        0.1618
     18 C           9.5323    0.3246    0.0000 C.ar    1  UNL1       -0.0159
     19 C           4.3083    2.3593    0.0000 C.ar    1  UNL1        0.1343
     20 C           4.3083    0.2899    0.0000 C.ar    1  UNL1        0.0225
     21 C           6.9343   -2.1754    0.0000 C.2     1  UNL1       -0.0809
     22 C           3.4022    0.8038    0.0000 C.ar    1  UNL1        0.1238
     23 C           3.4022    1.8454    0.0000 C.ar    1  UNL1        0.0222
     24 C           6.0682   -2.6754    0.0000 C.2     1  UNL1       -0.0793
     25 C           6.0682   -3.6754    0.0000 C.3     1  UNL1       -0.0440
     26 C           5.2022   -2.1754    0.0000 C.3     1  UNL1       -0.0440
     27 C           9.5323   -2.6754    0.0000 C.3     1  UNL1        0.0790
     28 C          11.2644   -0.6754    0.0000 C.3     1  UNL1        0.0790
     29 H           6.9343    0.2046    0.0000 H       1  UNL1        0.0789
     30 H           7.5449    1.7170    0.0000 H       1  UNL1        0.0385
     31 H           7.1463    2.4072    0.0000 H       1  UNL1        0.0385
     32 H           6.7222   -0.5928    0.0000 H       1  UNL1        0.0357
     33 H           6.3237   -1.2830    0.0000 H       1  UNL1        0.0357
     34 H           8.6663    1.4446    0.0000 H       1  UNL1        0.0623
     35 H          10.0693    0.6346    0.0000 H       1  UNL1        0.0655
     36 H           4.3154   -0.3300    0.0000 H       1  UNL1        0.0691
     37 H           7.4712   -2.4854    0.0000 H       1  UNL1        0.0575
     38 H           2.8665    2.1575    0.0000 H       1  UNL1        0.0691
     39 H           3.7865    3.6754    0.0000 H       1  UNL1        0.2922
     40 H           5.4482   -3.6754    0.0000 H       1  UNL1        0.0274
     41 H           5.5122   -1.6385    0.0000 H       1  UNL1        0.0274
     42 H           4.6653   -1.8654    0.0000 H       1  UNL1        0.0274
     43 H           4.8922   -2.7123    0.0000 H       1  UNL1        0.0274
     44 H           6.0682   -4.2954    0.0000 H       1  UNL1        0.0274
     45 H           6.6882   -3.6754    0.0000 H       1  UNL1        0.0274
     46 H           9.2224   -3.2123    0.0000 H       1  UNL1        0.0660
     47 H          10.0693   -2.9854    0.0000 H       1  UNL1        0.0660
     48 H           9.8424   -2.1385    0.0000 H       1  UNL1        0.0660
     49 H          11.5744   -1.2123    0.0000 H       1  UNL1        0.0660
     50 H          11.8013   -0.3654    0.0000 H       1  UNL1        0.0660
     51 H          10.9544   -0.1385    0.0000 H       1  UNL1        0.0660
     52 H           2.0000    0.6084    0.0000 H       1  UNL1        0.2921
@<TRIPOS>BOND
     1     1     7    1
     2     1    13    1
     3     2    16    1
     4     2    27    1
     5     3    11    2
     6     4    17    1
     7     4    28    1
     8     5    19    1
     9     5    39    1
    10     6    22    1
    11     6    52    1
    12     7     8    1
    13     7     9    1
    14     7    29    1
    15     8    10   ar
    16     8    15   ar
    17     9    11    1
    18     9    30    1
    19     9    31    1
    20    10    14    1
    21    10    16   ar
    22    11    12    1
    23    12    13   ar
    24    12    19   ar
    25    13    20   ar
    26    14    21    1
    27    14    32    1
    28    14    33    1
    29    15    18   ar
    30    15    34    1
    31    16    17   ar
    32    17    18   ar
    33    18    35    1
    34    19    23   ar
    35    20    22   ar
    36    20    36    1
    37    21    24    2
    38    21    37    1
    39    22    23   ar
    40    23    38    1
    41    24    25    1
    42    24    26    1
    43    25    40    1
    44    25    44    1
    45    25    45    1
    46    26    41    1
    47    26    42    1
    48    26    43    1
    49    27    46    1
    50    27    47    1
    51    27    48    1
    52    28    49    1
    53    28    50    1
    54    28    51    1
