@<TRIPOS>MOLECULE
IMPHY001877
 90 95 0 0 0
SMALL
GASTEIGER

@<TRIPOS>ATOM
      1 O          11.4875    1.5030    0.0000 O.3     1  UNL1       -0.3549
      2 O          10.0776   -0.2643    0.0000 O.3     1  UNL1       -0.4760
      3 O          14.0753   -0.0322    0.0000 O.2     1  UNL1       -0.2935
      4 O          10.0776   -3.0266    0.0000 O.2     1  UNL1       -0.2866
      5 O           6.9278   -0.1424    0.0000 O.3     1  UNL1       -0.4808
      6 O           8.5513   -3.0266    0.0000 O.3     1  UNL1       -0.5052
      7 O          12.2669    3.2445    0.0000 O.3     1  UNL1       -0.4774
      8 O          12.1871    1.5143    0.0000 O.2     1  UNL1       -0.2455
      9 C          10.8407   -0.7049    0.0000 C.3     1  UNL1        0.1800
     10 C          11.6038   -0.2643    0.0000 C.3     1  UNL1        0.0360
     11 C          11.6245    0.4995    0.0000 C.3     1  UNL1        0.1753
     12 C          12.2512    0.7540    0.0000 C.3     1  UNL1        0.0723
     13 C          12.3670   -0.7049    0.0000 C.3     1  UNL1       -0.0304
     14 C          12.3670   -1.5860    0.0000 C.3     1  UNL1        0.0399
     15 C          10.8407   -1.5860    0.0000 C.2     1  UNL1        0.0435
     16 C          13.1128   -0.3034    0.0000 C.2     1  UNL1        0.1762
     17 C          11.6038   -2.0266    0.0000 C.2     1  UNL1       -0.0630
     18 C          10.6488    0.7183    0.0000 C.3     1  UNL1        0.0064
     19 C          12.9878    1.4303    0.0000 C.3     1  UNL1       -0.0356
     20 C          13.2376    0.5899    0.0000 C.3     1  UNL1       -0.0356
     21 C          10.0776   -2.0266    0.0000 C.2     1  UNL1        0.1999
     22 C           9.3144   -0.7049    0.0000 C.ar    1  UNL1        0.1433
     23 C           9.3144   -1.5860    0.0000 C.ar    1  UNL1        0.1061
     24 C          10.1892    1.6064    0.0000 C.2     1  UNL1       -0.0710
     25 C           8.5513   -0.2643    0.0000 C.ar    1  UNL1        0.0412
     26 C           8.5513   -2.0266    0.0000 C.ar    1  UNL1        0.1418
     27 C          10.7286    2.4485    0.0000 C.2     1  UNL1        0.0295
     28 C           7.7882   -0.7049    0.0000 C.ar    1  UNL1        0.1393
     29 C           7.7882   -1.5860    0.0000 C.ar    1  UNL1        0.0591
     30 C           8.5513    0.7357    0.0000 C.3     1  UNL1       -0.0023
     31 C          10.2690    3.3366    0.0000 C.3     1  UNL1       -0.0332
     32 C           6.9278   -2.1485    0.0000 C.2     1  UNL1       -0.0478
     33 C          11.7275    2.4024    0.0000 C.2     1  UNL1        0.3322
     34 C           6.0236   -0.6315    0.0000 C.3     1  UNL1        0.1266
     35 C           7.6852    1.2357    0.0000 C.2     1  UNL1       -0.0807
     36 C           6.0236   -1.6594    0.0000 C.2     1  UNL1       -0.0405
     37 C           5.0237   -0.6176    0.0000 C.3     1  UNL1       -0.0060
     38 C           5.5357    0.2414    0.0000 C.3     1  UNL1       -0.0212
     39 C           7.6852    2.2357    0.0000 C.2     1  UNL1       -0.0793
     40 C           4.5118   -1.4766    0.0000 C.3     1  UNL1       -0.0306
     41 C           6.8192    2.7357    0.0000 C.3     1  UNL1       -0.0440
     42 C           8.5513    2.7357    0.0000 C.3     1  UNL1       -0.0440
     43 C           3.5118   -1.4628    0.0000 C.2     1  UNL1       -0.0851
     44 C           2.9999   -2.3218    0.0000 C.2     1  UNL1       -0.0796
     45 C           2.0000   -2.3079    0.0000 C.3     1  UNL1       -0.0440
     46 C           3.4879   -3.1947    0.0000 C.3     1  UNL1       -0.0440
     47 H          12.2060   -0.1166    0.0000 H       1  UNL1        0.0372
     48 H          12.9776   -0.8125    0.0000 H       1  UNL1        0.0280
     49 H          12.5790   -0.1222    0.0000 H       1  UNL1        0.0280
     50 H          12.9671   -2.1880    0.0000 H       1  UNL1        0.0421
     51 H          11.6038   -2.6466    0.0000 H       1  UNL1        0.0584
     52 H          10.0473    0.5680    0.0000 H       1  UNL1        0.0341
     53 H          10.6563    0.0983    0.0000 H       1  UNL1        0.0341
     54 H          13.4071    0.9736    0.0000 H       1  UNL1        0.0257
     55 H          13.4445    1.8496    0.0000 H       1  UNL1        0.0257
     56 H          12.5685    1.8870    0.0000 H       1  UNL1        0.0257
     57 H          13.1359   -0.0217    0.0000 H       1  UNL1        0.0257
     58 H          13.8492    0.4882    0.0000 H       1  UNL1        0.0257
     59 H          13.3394    1.2015    0.0000 H       1  UNL1        0.0257
     60 H           9.5699    1.6350    0.0000 H       1  UNL1        0.0578
     61 H           9.1619    0.6281    0.0000 H       1  UNL1        0.0358
     62 H           8.7633    1.3184    0.0000 H       1  UNL1        0.0358
     63 H          10.8197    3.6216    0.0000 H       1  UNL1        0.0280
     64 H           9.9841    3.8873    0.0000 H       1  UNL1        0.0280
     65 H           9.7184    3.0517    0.0000 H       1  UNL1        0.0280
     66 H           6.9535   -2.7680    0.0000 H       1  UNL1        0.0624
     67 H           8.0144   -3.3366    0.0000 H       1  UNL1        0.2922
     68 H           7.1483    0.9257    0.0000 H       1  UNL1        0.0575
     69 H           5.4910   -1.9768    0.0000 H       1  UNL1        0.0611
     70 H           5.1398   -0.0086    0.0000 H       1  UNL1        0.0310
     71 H           4.4441   -0.3975    0.0000 H       1  UNL1        0.0310
     72 H           6.0768    0.5439    0.0000 H       1  UNL1        0.0271
     73 H           5.2331    0.7826    0.0000 H       1  UNL1        0.0271
     74 H           4.9945   -0.0611    0.0000 H       1  UNL1        0.0271
     75 H          12.8862    3.2159    0.0000 H       1  UNL1        0.2954
     76 H           4.3956   -2.0857    0.0000 H       1  UNL1        0.0309
     77 H           5.0914   -1.6967    0.0000 H       1  UNL1        0.0309
     78 H           7.1292    3.2727    0.0000 H       1  UNL1        0.0274
     79 H           6.2823    3.0457    0.0000 H       1  UNL1        0.0274
     80 H           6.5092    2.1988    0.0000 H       1  UNL1        0.0274
     81 H           8.8613    2.1988    0.0000 H       1  UNL1        0.0274
     82 H           9.0882    3.0458    0.0000 H       1  UNL1        0.0274
     83 H           8.2413    3.2727    0.0000 H       1  UNL1        0.0274
     84 H           3.2093   -0.9216    0.0000 H       1  UNL1        0.0571
     85 H           2.9467   -3.4972    0.0000 H       1  UNL1        0.0274
     86 H           3.7904   -3.7358    0.0000 H       1  UNL1        0.0274
     87 H           4.0290   -2.8921    0.0000 H       1  UNL1        0.0274
     88 H           2.0086   -1.6880    0.0000 H       1  UNL1        0.0274
     89 H           1.3801   -2.2994    0.0000 H       1  UNL1        0.0274
     90 H           1.9914   -2.9279    0.0000 H       1  UNL1        0.0274
@<TRIPOS>BOND
     1     1    11    1
     2     1    12    1
     3     9     2    1
     4     2    22    1
     5     3    16    2
     6     4    21    2
     7     5    28    1
     8     5    34    1
     9     6    26    1
    10     6    67    1
    11     7    33    1
    12     7    75    1
    13     8    33    2
    14     9    10    1
    15     9    11    1
    16     9    15    1
    17    10    12    1
    18    10    13    1
    19    10    47    1
    20    11    16    1
    21    11    18    1
    22    12    19    1
    23    12    20    1
    24    13    14    1
    25    13    48    1
    26    13    49    1
    27    14    16    1
    28    14    17    1
    29    14    50    1
    30    15    17    2
    31    15    21    1
    32    17    51    1
    33    18    24    1
    34    18    52    1
    35    18    53    1
    36    19    54    1
    37    19    55    1
    38    19    56    1
    39    20    57    1
    40    20    58    1
    41    20    59    1
    42    21    23    1
    43    22    23   ar
    44    22    25   ar
    45    23    26   ar
    46    24    27    2
    47    24    60    1
    48    25    28   ar
    49    25    30    1
    50    26    29   ar
    51    27    31    1
    52    27    33    1
    53    28    29   ar
    54    29    32    1
    55    30    35    1
    56    30    61    1
    57    30    62    1
    58    31    63    1
    59    31    64    1
    60    31    65    1
    61    32    36    2
    62    32    66    1
    63    34    36    1
    64    34    37    1
    65    34    38    1
    66    35    39    2
    67    35    68    1
    68    36    69    1
    69    37    40    1
    70    37    70    1
    71    37    71    1
    72    38    72    1
    73    38    73    1
    74    38    74    1
    75    39    41    1
    76    39    42    1
    77    40    43    1
    78    40    76    1
    79    40    77    1
    80    41    78    1
    81    41    79    1
    82    41    80    1
    83    42    81    1
    84    42    82    1
    85    42    83    1
    86    43    44    2
    87    43    84    1
    88    44    45    1
    89    44    46    1
    90    45    88    1
    91    45    89    1
    92    45    90    1
    93    46    85    1
    94    46    86    1
    95    46    87    1
