@<TRIPOS>MOLECULE
IMPHY016812
 30 29 0 0 0
SMALL
GASTEIGER

@<TRIPOS>ATOM
      1 O           6.3301    0.6900    0.0000 O.3     1  UNL1       -0.4605
      2 O           5.4641   -0.8100    0.0000 O.2     1  UNL1       -0.2508
      3 C           3.7320    0.1900    0.0000 C.3     1  UNL1       -0.0432
      4 C           2.8660    0.6900    0.0000 C.3     1  UNL1       -0.0554
      5 C           4.5981    0.6900    0.0000 C.3     1  UNL1        0.0449
      6 C           2.0000    0.1900    0.0000 C.3     1  UNL1       -0.0653
      7 C           5.4641    0.1900    0.0000 C.2     1  UNL1        0.3074
      8 C           7.1962    0.1900    0.0000 C.3     1  UNL1        0.1107
      9 C           8.9282   -0.8100    0.0000 C.3     1  UNL1       -0.0375
     10 C           8.0622    0.6900    0.0000 C.2     1  UNL1       -0.0510
     11 C           8.9282    0.1900    0.0000 C.2     1  UNL1       -0.0850
     12 C           9.7942   -1.3100    0.0000 C.3     1  UNL1       -0.0618
     13 H           3.3335   -0.2849    0.0000 H       1  UNL1        0.0270
     14 H           4.1306   -0.2849    0.0000 H       1  UNL1        0.0270
     15 H           3.2646    1.1650    0.0000 H       1  UNL1        0.0263
     16 H           2.4675    1.1650    0.0000 H       1  UNL1        0.0263
     17 H           4.9966    1.1650    0.0000 H       1  UNL1        0.0377
     18 H           4.1996    1.1650    0.0000 H       1  UNL1        0.0377
     19 H           1.6900    0.7269    0.0000 H       1  UNL1        0.0230
     20 H           1.4631   -0.1200    0.0000 H       1  UNL1        0.0230
     21 H           2.3100   -0.3469    0.0000 H       1  UNL1        0.0230
     22 H           6.7976   -0.2849    0.0000 H       1  UNL1        0.0743
     23 H           7.5947   -0.2849    0.0000 H       1  UNL1        0.0743
     24 H           8.3176   -0.7023    0.0000 H       1  UNL1        0.0305
     25 H           8.7162   -1.3926    0.0000 H       1  UNL1        0.0305
     26 H           8.0622    1.3100    0.0000 H       1  UNL1        0.0602
     27 H           9.4651    0.5000    0.0000 H       1  UNL1        0.0570
     28 H           9.4842   -1.8469    0.0000 H       1  UNL1        0.0233
     29 H          10.3312   -1.6200    0.0000 H       1  UNL1        0.0233
     30 H          10.1042   -0.7731    0.0000 H       1  UNL1        0.0233
@<TRIPOS>BOND
     1     1     7    1
     2     1     8    1
     3     2     7    2
     4     3     4    1
     5     3     5    1
     6     3    13    1
     7     3    14    1
     8     4     6    1
     9     4    15    1
    10     4    16    1
    11     5     7    1
    12     5    17    1
    13     5    18    1
    14     6    19    1
    15     6    20    1
    16     6    21    1
    17     8    10    1
    18     8    22    1
    19     8    23    1
    20     9    11    1
    21     9    12    1
    22     9    24    1
    23     9    25    1
    24    10    11    2
    25    10    26    1
    26    11    27    1
    27    12    28    1
    28    12    29    1
    29    12    30    1
