@<TRIPOS>MOLECULE
IMPHY017037
 21 20 0 0 0
SMALL
GASTEIGER

@<TRIPOS>ATOM
      1 O           5.4641   -1.0950    0.0000 O.3     1  UNL1       -0.3801
      2 O           7.1962   -0.0950    0.0000 O.3     1  UNL1       -0.4661
      3 O           2.8660    0.4050    0.0000 O.3     1  UNL1       -0.4679
      4 O           6.3301    1.4050    0.0000 O.2     1  UNL1       -0.2479
      5 O           3.7320   -1.0950    0.0000 O.2     1  UNL1       -0.2508
      6 C           5.4641   -0.0950    0.0000 C.3     1  UNL1        0.1616
      7 C           4.5981    0.4050    0.0000 C.3     1  UNL1        0.0813
      8 C           6.3301    0.4050    0.0000 C.2     1  UNL1        0.3363
      9 C           3.7320   -0.0950    0.0000 C.2     1  UNL1        0.3099
     10 C           8.0622    0.4050    0.0000 C.3     1  UNL1        0.0817
     11 C           2.0000   -0.0950    0.0000 C.3     1  UNL1        0.0817
     12 H           6.2002   -0.5200    0.0000 H       1  UNL1        0.0716
     13 H           4.9966    0.8799    0.0000 H       1  UNL1        0.0409
     14 H           4.1996    0.8799    0.0000 H       1  UNL1        0.0409
     15 H           4.9272   -1.4050    0.0000 H       1  UNL1        0.2105
     16 H           8.3722   -0.1319    0.0000 H       1  UNL1        0.0661
     17 H           8.5991    0.7150    0.0000 H       1  UNL1        0.0661
     18 H           7.7522    0.9419    0.0000 H       1  UNL1        0.0661
     19 H           1.6900    0.4419    0.0000 H       1  UNL1        0.0661
     20 H           1.4631   -0.4050    0.0000 H       1  UNL1        0.0661
     21 H           2.3100   -0.6319    0.0000 H       1  UNL1        0.0661
@<TRIPOS>BOND
     1     1     6    1
     2     1    15    1
     3     2     8    1
     4     2    10    1
     5     3     9    1
     6     3    11    1
     7     4     8    2
     8     5     9    2
     9     6     7    1
    10     6     8    1
    11     6    12    1
    12     7     9    1
    13     7    13    1
    14     7    14    1
    15    10    16    1
    16    10    17    1
    17    10    18    1
    18    11    19    1
    19    11    20    1
    20    11    21    1
