@<TRIPOS>MOLECULE
IMPHY008029
 39 41 0 0 0
SMALL
GASTEIGER

@<TRIPOS>ATOM
      1 C           4.2515    0.2926    0.0000 C.3     1  UNL1       -0.0284
      2 C           5.0605   -0.2952    0.0000 C.3     1  UNL1       -0.0054
      3 C           4.5605    1.2436    0.0000 C.3     1  UNL1       -0.0366
      4 C           5.8695    0.2926    0.0000 C.3     1  UNL1       -0.0311
      5 C           5.5605    1.2436    0.0000 C.3     1  UNL1       -0.0463
      6 C           3.2574    0.2952    0.0000 C.3     1  UNL1       -0.0440
      7 C           2.9511    1.2408    0.0000 C.3     1  UNL1       -0.0343
      8 C           3.7548    1.8258    0.0000 C.3     1  UNL1       -0.0447
      9 C           6.6722   -0.2938    0.0000 C.3     1  UNL1       -0.0457
     10 C           5.3702   -1.2398    0.0000 C.2     1  UNL1       -0.0702
     11 C           6.3642   -1.2390    0.0000 C.3     1  UNL1       -0.0312
     12 C           4.2515   -0.8830    0.0000 C.3     1  UNL1       -0.0553
     13 C           2.3633    2.0499    0.0000 C.3     1  UNL1       -0.0598
     14 C           2.0000    0.9318    0.0000 C.3     1  UNL1       -0.0598
     15 C           4.7838   -2.0499    0.0000 C.2     1  UNL1       -0.0989
     16 H           3.9878   -0.5155    0.0000 H       1  UNL1        0.0312
     17 H           4.8221    2.0524    0.0000 H       1  UNL1        0.0304
     18 H           6.5578    0.7913    0.0000 H       1  UNL1        0.0309
     19 H           6.1670    1.3725    0.0000 H       1  UNL1        0.0271
     20 H           5.4957    1.8602    0.0000 H       1  UNL1        0.0271
     21 H           2.6508    0.1671    0.0000 H       1  UNL1        0.0273
     22 H           3.3210   -0.3216    0.0000 H       1  UNL1        0.0273
     23 H           4.1687    2.2874    0.0000 H       1  UNL1        0.0273
     24 H           3.3392    2.2860    0.0000 H       1  UNL1        0.0273
     25 H           7.2383   -0.5468    0.0000 H       1  UNL1        0.0271
     26 H           6.9833    0.2425    0.0000 H       1  UNL1        0.0271
     27 H           6.2996   -1.8556    0.0000 H       1  UNL1        0.0310
     28 H           6.9706   -1.3680    0.0000 H       1  UNL1        0.0310
     29 H           3.8871   -0.3814    0.0000 H       1  UNL1        0.0238
     30 H           3.7499   -1.2474    0.0000 H       1  UNL1        0.0238
     31 H           4.6159   -1.3846    0.0000 H       1  UNL1        0.0238
     32 H           2.8649    2.4143    0.0000 H       1  UNL1        0.0235
     33 H           1.9988    2.5515    0.0000 H       1  UNL1        0.0235
     34 H           1.8617    1.6854    0.0000 H       1  UNL1        0.0235
     35 H           1.8084    1.5215    0.0000 H       1  UNL1        0.0235
     36 H           1.4103    0.7402    0.0000 H       1  UNL1        0.0235
     37 H           2.1916    0.3422    0.0000 H       1  UNL1        0.0235
     38 H           4.1671   -1.9861    0.0000 H       1  UNL1        0.0535
     39 H           5.0369   -2.6158    0.0000 H       1  UNL1        0.0535
@<TRIPOS>BOND
     1     1     2    1
     2     1     3    1
     3     1     6    1
     4     1    16    1
     5     2     4    1
     6     2    10    1
     7     2    12    1
     8     3     5    1
     9     3     8    1
    10     3    17    1
    11     4     5    1
    12     4     9    1
    13     4    18    1
    14     5    19    1
    15     5    20    1
    16     6     7    1
    17     6    21    1
    18     6    22    1
    19     7     8    1
    20     7    13    1
    21     7    14    1
    22     8    23    1
    23     8    24    1
    24     9    11    1
    25     9    25    1
    26     9    26    1
    27    10    11    1
    28    10    15    2
    29    11    27    1
    30    11    28    1
    31    12    29    1
    32    12    30    1
    33    12    31    1
    34    13    32    1
    35    13    33    1
    36    13    34    1
    37    14    35    1
    38    14    36    1
    39    14    37    1
    40    15    38    1
    41    15    39    1
