@<TRIPOS>MOLECULE
IMPHY012522
 101 114 0 0 0
SMALL
GASTEIGER

@<TRIPOS>ATOM
      1 O           7.1060   -2.0836    0.0000 O.3     1  UNL1       -0.3359
      2 O           9.0020    0.6680    0.0000 O.3     1  UNL1       -0.3752
      3 O           4.1514   -2.1601    0.0000 O.3     1  UNL1       -0.3759
      4 O          11.0001   -1.7096    0.0000 O.3     1  UNL1       -0.4932
      5 O           7.0432    4.1169    0.0000 O.3     1  UNL1       -0.4646
      6 O           5.3111    4.1236    0.0000 O.2     1  UNL1       -0.2453
      7 N           8.8381   -2.0836    0.0000 N.pl3   1  UNL1       -0.2972
      8 N           6.1960   -0.5768    0.0000 N.3     1  UNL1       -0.2721
      9 N           6.8466   -4.5926    0.0000 N.3     1  UNL1       -0.2977
     10 N           4.2026    2.4005    0.0000 N.pl3   1  UNL1       -0.3164
     11 C           7.9721   -2.5836    0.0000 C.3     1  UNL1        0.1524
     12 C           8.1813   -3.5554    0.0000 C.3     1  UNL1        0.0610
     13 C           7.9721   -0.5836    0.0000 C.3     1  UNL1        0.0534
     14 C           7.5721   -1.9836    0.0000 C.3     1  UNL1        0.0075
     15 C           7.2026   -3.4152    0.0000 C.3     1  UNL1        0.0324
     16 C           6.4080   -2.5418    0.0000 C.3     1  UNL1        0.0160
     17 C           7.1060   -1.0836    0.0000 C.3     1  UNL1        0.1242
     18 C           7.5721   -1.1836    0.0000 C.3     1  UNL1       -0.0328
     19 C           7.9881    0.4579    0.0000 C.3     1  UNL1        0.0768
     20 C           7.0901    0.9856    0.0000 C.3     1  UNL1        0.0208
     21 C           6.5969   -1.8208    0.0000 C.3     1  UNL1       -0.0364
     22 C           8.8381   -1.0836    0.0000 C.3     1  UNL1        0.0266
     23 C           6.1880    0.4648    0.0000 C.3     1  UNL1        0.0360
     24 C           8.4801   -4.5057    0.0000 C.3     1  UNL1       -0.0247
     25 C           9.1700   -3.6585    0.0000 C.ar    1  UNL1       -0.0106
     26 C           5.2023   -2.7851    0.0000 C.3     1  UNL1        0.0670
     27 C           5.2401    0.9928    0.0000 C.3     1  UNL1        0.0532
     28 C           9.5751   -2.7507    0.0000 C.ar    1  UNL1        0.0780
     29 C           7.6936   -5.1169    0.0000 C.3     1  UNL1        0.0002
     30 C           5.9193   -1.4210    0.0000 C.3     1  UNL1       -0.0199
     31 C           7.7908    1.7480    0.0000 C.3     1  UNL1       -0.0196
     32 C           7.1068    2.0705    0.0000 C.3     1  UNL1       -0.0098
     33 C           5.1703   -0.7330    0.0000 C.3     1  UNL1        0.0027
     34 C           4.6306    0.1531    0.0000 C.3     1  UNL1       -0.0237
     35 C           5.6469   -4.8637    0.0000 C.3     1  UNL1        0.0016
     36 C           4.8192   -3.9539    0.0000 C.3     1  UNL1       -0.0132
     37 C           5.2318    2.0777    0.0000 C.2     1  UNL1        0.0304
     38 C           8.9252    1.5079    0.0000 C.3     1  UNL1        0.0487
     39 C           4.5605   -1.2522    0.0000 C.3     1  UNL1        0.0487
     40 C           6.1714    2.6202    0.0000 C.2     1  UNL1        0.0551
     41 C           4.2160    0.6542    0.0000 C.ar    1  UNL1       -0.0130
     42 C           9.7649   -4.5060    0.0000 C.ar    1  UNL1       -0.0559
     43 C          10.6032   -2.6275    0.0000 C.ar    1  UNL1        0.1414
     44 C           3.5761    1.5225    0.0000 C.ar    1  UNL1        0.0353
     45 C          10.7956   -4.4066    0.0000 C.ar    1  UNL1       -0.0579
     46 C          11.2176   -3.4610    0.0000 C.ar    1  UNL1       -0.0181
     47 C           3.7821   -0.3820    0.0000 C.ar    1  UNL1       -0.0559
     48 C           6.1752    3.6202    0.0000 C.2     1  UNL1        0.3364
     49 C           2.4578    1.4146    0.0000 C.ar    1  UNL1       -0.0403
     50 C           2.6666   -0.5157    0.0000 C.ar    1  UNL1       -0.0614
     51 C           2.0000    0.3887    0.0000 C.ar    1  UNL1       -0.0600
     52 C          11.9935   -1.5945    0.0000 C.3     1  UNL1        0.0789
     53 C           7.0470    5.1169    0.0000 C.3     1  UNL1        0.0820
     54 H           7.3521   -2.8046    0.0000 H       1  UNL1        0.0346
     55 H           6.3612   -3.2947    0.0000 H       1  UNL1        0.0479
     56 H           6.2560   -1.0836    0.0000 H       1  UNL1        0.0777
     57 H           7.1943   -0.6920    0.0000 H       1  UNL1        0.0277
     58 H           8.1655   -1.3633    0.0000 H       1  UNL1        0.0277
     59 H           8.6432   -0.0838    0.0000 H       1  UNL1        0.0609
     60 H           6.7174   -1.2127    0.0000 H       1  UNL1        0.0276
     61 H           5.9926   -1.6819    0.0000 H       1  UNL1        0.0276
     62 H           9.4487   -1.1913    0.0000 H       1  UNL1        0.0472
     63 H           9.0501   -0.5010    0.0000 H       1  UNL1        0.0472
     64 H           6.1814    1.3148    0.0000 H       1  UNL1        0.0482
     65 H           8.7999   -5.0368    0.0000 H       1  UNL1        0.0288
     66 H           9.0454   -4.2510    0.0000 H       1  UNL1        0.0288
     67 H           4.4064   -3.0836    0.0000 H       1  UNL1        0.0602
     68 H           7.3071   -5.6017    0.0000 H       1  UNL1        0.0427
     69 H           8.1293   -5.5580    0.0000 H       1  UNL1        0.0427
     70 H           6.5225   -1.2779    0.0000 H       1  UNL1        0.0294
     71 H           5.8854   -0.8019    0.0000 H       1  UNL1        0.0294
     72 H           8.0247    2.3222    0.0000 H       1  UNL1        0.0294
     73 H           7.2672    2.0800    0.0000 H       1  UNL1        0.0294
     74 H           7.7160    1.9550    0.0000 H       1  UNL1        0.0323
     75 H           7.3248    2.6509    0.0000 H       1  UNL1        0.0323
     76 H           4.6030   -0.9830    0.0000 H       1  UNL1        0.0428
     77 H           5.3435   -1.3283    0.0000 H       1  UNL1        0.0428
     78 H           4.1812    0.5802    0.0000 H       1  UNL1        0.0290
     79 H           4.1482   -0.2362    0.0000 H       1  UNL1        0.0290
     80 H           5.1236   -5.1963    0.0000 H       1  UNL1        0.0427
     81 H           5.8850   -5.4362    0.0000 H       1  UNL1        0.0427
     82 H           4.2718   -3.6628    0.0000 H       1  UNL1        0.0303
     83 H           4.4387   -4.4434    0.0000 H       1  UNL1        0.0303
     84 H           9.5452    1.5025    0.0000 H       1  UNL1        0.0560
     85 H           8.9925    2.1242    0.0000 H       1  UNL1        0.0560
     86 H           4.6980   -0.6476    0.0000 H       1  UNL1        0.0560
     87 H           3.9727   -1.0552    0.0000 H       1  UNL1        0.0560
     88 H           9.5057   -5.0692    0.0000 H       1  UNL1        0.0621
     89 H           4.0054    2.9883    0.0000 H       1  UNL1        0.1519
     90 H          11.1576   -4.9099    0.0000 H       1  UNL1        0.0619
     91 H          11.8340   -3.3944    0.0000 H       1  UNL1        0.0655
     92 H           4.1556   -0.8768    0.0000 H       1  UNL1        0.0621
     93 H           2.0958    1.9179    0.0000 H       1  UNL1        0.0636
     94 H           2.4205   -1.0848    0.0000 H       1  UNL1        0.0618
     95 H           1.3836    0.3220    0.0000 H       1  UNL1        0.0618
     96 H          12.0649   -2.2104    0.0000 H       1  UNL1        0.0660
     97 H          12.6094   -1.5231    0.0000 H       1  UNL1        0.0660
     98 H          11.9221   -0.9786    0.0000 H       1  UNL1        0.0660
     99 H           7.6670    5.1145    0.0000 H       1  UNL1        0.0661
    100 H           7.0494    5.7369    0.0000 H       1  UNL1        0.0661
    101 H           6.4271    5.1193    0.0000 H       1  UNL1        0.0661
@<TRIPOS>BOND
     1    11     1    1
     2     1    17    1
     3     2    19    1
     4     2    38    1
     5     3    26    1
     6     3    39    1
     7     4    43    1
     8     4    52    1
     9     5    48    1
    10     5    53    1
    11     6    48    2
    12     7    11    1
    13     7    22    1
    14     7    28    1
    15     8    17    1
    16     8    23    1
    17     8    33    1
    18     9    15    1
    19     9    29    1
    20     9    35    1
    21    10    37    1
    22    10    44    1
    23    10    89    1
    24    11    12    1
    25    11    14    1
    26    12    15    1
    27    12    24    1
    28    12    25    1
    29    13    17    1
    30    13    18    1
    31    13    19    1
    32    13    22    1
    33    14    18    1
    34    14    21    1
    35    14    54    1
    36    15    16    1
    37    15    55    1
    38    16    21    1
    39    16    26    1
    40    16    30    1
    41    17    56    1
    42    18    57    1
    43    18    58    1
    44    19    20    1
    45    19    59    1
    46    20    23    1
    47    20    31    1
    48    20    32    1
    49    21    60    1
    50    21    61    1
    51    22    62    1
    52    22    63    1
    53    23    27    1
    54    23    64    1
    55    24    29    1
    56    24    65    1
    57    24    66    1
    58    25    28   ar
    59    25    42   ar
    60    26    36    1
    61    26    67    1
    62    27    34    1
    63    27    37    1
    64    27    41    1
    65    28    43   ar
    66    29    68    1
    67    29    69    1
    68    30    39    1
    69    30    70    1
    70    30    71    1
    71    31    38    1
    72    31    72    1
    73    31    73    1
    74    32    40    1
    75    32    74    1
    76    32    75    1
    77    33    34    1
    78    33    76    1
    79    33    77    1
    80    34    78    1
    81    34    79    1
    82    35    36    1
    83    35    80    1
    84    35    81    1
    85    36    82    1
    86    36    83    1
    87    37    40    2
    88    38    84    1
    89    38    85    1
    90    39    86    1
    91    39    87    1
    92    40    48    1
    93    41    44   ar
    94    41    47   ar
    95    42    45   ar
    96    42    88    1
    97    43    46   ar
    98    44    49   ar
    99    45    46   ar
   100    45    90    1
   101    46    91    1
   102    47    50   ar
   103    47    92    1
   104    49    51   ar
   105    49    93    1
   106    50    51   ar
   107    50    94    1
   108    51    95    1
   109    52    96    1
   110    52    97    1
   111    52    98    1
   112    53    99    1
   113    53   100    1
   114    53   101    1
