@<TRIPOS>MOLECULE
IMPHY002183
 50 52 0 0 0
SMALL
GASTEIGER

@<TRIPOS>ATOM
      1 O           2.0000   -2.0095    0.0000 O.2     1  UNL1       -0.2968
      2 O           7.2622   -1.9854    0.0000 O.2     1  UNL1       -0.2920
      3 O           6.4082    2.5839    0.0000 O.3     1  UNL1       -0.5065
      4 O           9.9142    1.5530    0.0000 O.3     1  UNL1       -0.3944
      5 C           4.6641   -0.4854    0.0000 C.3     1  UNL1       -0.0018
      6 C           4.6641   -1.4854    0.0000 C.3     1  UNL1       -0.0128
      7 C           3.7702   -2.0200    0.0000 C.3     1  UNL1        0.0274
      8 C           3.7702    0.0493    0.0000 C.3     1  UNL1       -0.0366
      9 C           5.5301   -1.9854    0.0000 C.3     1  UNL1        0.0150
     10 C           5.5301    0.0146    0.0000 C.ar    1  UNL1       -0.0272
     11 C           2.8641   -0.4646    0.0000 C.3     1  UNL1        0.0072
     12 C           2.8641   -1.5062    0.0000 C.2     1  UNL1        0.1393
     13 C           4.6641    0.5146    0.0000 C.3     1  UNL1       -0.0552
     14 C           3.2802   -2.8918    0.0000 C.3     1  UNL1       -0.0528
     15 C           4.2801   -2.8802    0.0000 C.3     1  UNL1       -0.0528
     16 C           6.3961   -0.4854    0.0000 C.ar    1  UNL1        0.0216
     17 C           6.3961   -1.4854    0.0000 C.2     1  UNL1        0.1638
     18 C           5.5141    1.0561    0.0000 C.ar    1  UNL1       -0.0155
     19 C           7.3062    0.0215    0.0000 C.ar    1  UNL1       -0.0440
     20 C           7.3142    1.0631    0.0000 C.ar    1  UNL1       -0.0003
     21 C           6.4121    1.5839    0.0000 C.ar    1  UNL1        0.1207
     22 C           8.1821    1.5597    0.0000 C.3     1  UNL1        0.0079
     23 C           9.0462    1.0564    0.0000 C.3     1  UNL1        0.0509
     24 C           8.1860    2.5597    0.0000 C.3     1  UNL1       -0.0562
     25 H           4.6706   -2.3354    0.0000 H       1  UNL1        0.0323
     26 H           4.1748    0.5191    0.0000 H       1  UNL1        0.0278
     27 H           3.3765    0.5283    0.0000 H       1  UNL1        0.0278
     28 H           5.1316   -2.4603    0.0000 H       1  UNL1        0.0348
     29 H           5.9286   -2.4603    0.0000 H       1  UNL1        0.0348
     30 H           2.6550    0.1191    0.0000 H       1  UNL1        0.0342
     31 H           2.2532   -0.5707    0.0000 H       1  UNL1        0.0342
     32 H           5.2841    0.5146    0.0000 H       1  UNL1        0.0238
     33 H           4.6641    1.1346    0.0000 H       1  UNL1        0.0238
     34 H           4.0441    0.5146    0.0000 H       1  UNL1        0.0238
     35 H           2.7397   -2.5880    0.0000 H       1  UNL1        0.0239
     36 H           2.9764   -3.4323    0.0000 H       1  UNL1        0.0239
     37 H           3.8207   -3.1956    0.0000 H       1  UNL1        0.0239
     38 H           3.7468   -3.1964    0.0000 H       1  UNL1        0.0239
     39 H           4.5963   -3.4136    0.0000 H       1  UNL1        0.0239
     40 H           4.8134   -2.5640    0.0000 H       1  UNL1        0.0239
     41 H           4.9736    1.3599    0.0000 H       1  UNL1        0.0657
     42 H           7.8395   -0.2947    0.0000 H       1  UNL1        0.0629
     43 H           8.7203    1.8676    0.0000 H       1  UNL1        0.0369
     44 H           8.6459    0.5830    0.0000 H       1  UNL1        0.0563
     45 H           9.4429    0.5799    0.0000 H       1  UNL1        0.0563
     46 H           8.8060    2.5573    0.0000 H       1  UNL1        0.0236
     47 H           8.1884    3.1797    0.0000 H       1  UNL1        0.0236
     48 H           7.5660    2.5621    0.0000 H       1  UNL1        0.0236
     49 H           5.8701    2.8918    0.0000 H       1  UNL1        0.2921
     50 H          10.4499    1.2410    0.0000 H       1  UNL1        0.2094
@<TRIPOS>BOND
     1     1    12    2
     2     2    17    2
     3     3    21    1
     4     3    49    1
     5     4    23    1
     6     4    50    1
     7     5     6    1
     8     5     8    1
     9     5    10    1
    10     5    13    1
    11     6     7    1
    12     6     9    1
    13     6    25    1
    14     7    12    1
    15     7    14    1
    16     7    15    1
    17     8    11    1
    18     8    26    1
    19     8    27    1
    20     9    17    1
    21     9    28    1
    22     9    29    1
    23    10    16   ar
    24    10    18   ar
    25    11    12    1
    26    11    30    1
    27    11    31    1
    28    13    32    1
    29    13    33    1
    30    13    34    1
    31    14    35    1
    32    14    36    1
    33    14    37    1
    34    15    38    1
    35    15    39    1
    36    15    40    1
    37    16    17    1
    38    16    19   ar
    39    18    21   ar
    40    18    41    1
    41    19    20   ar
    42    19    42    1
    43    20    21   ar
    44    20    22    1
    45    22    23    1
    46    22    24    1
    47    22    43    1
    48    23    44    1
    49    23    45    1
    50    24    46    1
    51    24    47    1
    52    24    48    1
