@<TRIPOS>MOLECULE
IMPHY004330
 123 130 0 0 0
SMALL
GASTEIGER

@<TRIPOS>ATOM
      1 O           8.3757    4.8469    0.0000 O.3     1  UNL1       -0.3678
      2 O          10.3994    6.1356    0.0000 O.3     1  UNL1       -0.3911
      3 O           7.7331   -1.7536    0.0000 O.3     1  UNL1       -0.3448
      4 O          10.2163   -1.0392    0.0000 O.3     1  UNL1       -0.3944
      5 O           6.0010   -1.7536    0.0000 O.3     1  UNL1       -0.3431
      6 O           7.7331   -3.7536    0.0000 O.3     1  UNL1       -0.3841
      7 O           6.0010   -4.7536    0.0000 O.3     1  UNL1       -0.3401
      8 O           4.2690   -3.7536    0.0000 O.3     1  UNL1       -0.3866
      9 O           4.2690   -4.7536    0.0000 O.3     1  UNL1       -0.3405
     10 O           6.0010   -6.7536    0.0000 O.3     1  UNL1       -0.3841
     11 O           4.2690   -7.7536    0.0000 O.3     1  UNL1       -0.3864
     12 O           2.5369   -6.7536    0.0000 O.3     1  UNL1       -0.3865
     13 O           2.5369   -3.7536    0.0000 O.3     1  UNL1       -0.3924
     14 C           8.6596    4.1422    0.0000 C.3     1  UNL1        0.0091
     15 C           7.7955    4.6456    0.0000 C.3     1  UNL1        0.0970
     16 C           8.6717    3.1007    0.0000 C.3     1  UNL1       -0.0169
     17 C           7.7994    5.6456    0.0000 C.3     1  UNL1        0.0028
     18 C           8.6673    6.1422    0.0000 C.3     1  UNL1        0.0258
     19 C           7.7716    2.5764    0.0000 C.3     1  UNL1       -0.0112
     20 C           7.7590    1.4915    0.0000 C.3     1  UNL1       -0.0217
     21 C           9.5276    4.6389    0.0000 C.3     1  UNL1       -0.0174
     22 C           9.5314    5.6389    0.0000 C.3     1  UNL1        0.0639
     23 C           8.6966    0.9454    0.0000 C.3     1  UNL1       -0.0252
     24 C           9.6216    2.5764    0.0000 C.3     1  UNL1       -0.0462
     25 C           8.7784    5.5382    0.0000 C.3     1  UNL1        0.0572
     26 C           6.8913    6.1559    0.0000 C.3     1  UNL1       -0.0414
     27 C           8.6874    7.1837    0.0000 C.3     1  UNL1       -0.0421
     28 C           6.8836    4.1422    0.0000 C.2     1  UNL1       -0.0554
     29 C           9.6341    1.4915    0.0000 C.3     1  UNL1       -0.0485
     30 C           9.6438    3.9648    0.0000 C.3     1  UNL1       -0.0560
     31 C           6.8715    3.1007    0.0000 C.2     1  UNL1       -0.0811
     32 C           6.8873    7.1976    0.0000 C.3     1  UNL1       -0.0345
     33 C           8.7096   -0.1847    0.0000 C.3     1  UNL1        0.0206
     34 C           9.6558    3.2781    0.0000 C.3     1  UNL1       -0.0584
     35 C           6.7696    0.9454    0.0000 C.3     1  UNL1       -0.0444
     36 C           7.7914    7.7149    0.0000 C.3     1  UNL1       -0.0472
     37 C           6.8950    1.9948    0.0000 C.3     1  UNL1       -0.0587
     38 C           7.7331   -0.7536    0.0000 C.3     1  UNL1        0.0695
     39 C           6.7565   -0.1847    0.0000 C.3     1  UNL1       -0.0254
     40 C           9.7096   -0.1770    0.0000 C.3     1  UNL1        0.0522
     41 C           6.3873    8.0636    0.0000 C.3     1  UNL1       -0.0598
     42 C           5.8873    7.1976    0.0000 C.3     1  UNL1       -0.0598
     43 C           9.2163   -1.0469    0.0000 C.3     1  UNL1       -0.0548
     44 C           6.8671   -2.2536    0.0000 C.3     1  UNL1        0.1881
     45 C           6.8671   -3.2536    0.0000 C.3     1  UNL1        0.1345
     46 C           6.0010   -3.7536    0.0000 C.3     1  UNL1        0.1205
     47 C           5.1350   -2.2536    0.0000 C.3     1  UNL1        0.0873
     48 C           5.1350   -3.2536    0.0000 C.3     1  UNL1        0.1098
     49 C           4.2690   -1.7536    0.0000 C.3     1  UNL1       -0.0361
     50 C           5.1350   -5.2536    0.0000 C.3     1  UNL1        0.1884
     51 C           5.1350   -6.2536    0.0000 C.3     1  UNL1        0.1341
     52 C           4.2690   -6.7536    0.0000 C.3     1  UNL1        0.1141
     53 C           3.4030   -5.2536    0.0000 C.3     1  UNL1        0.1130
     54 C           3.4030   -6.2536    0.0000 C.3     1  UNL1        0.1119
     55 C           2.5369   -4.7536    0.0000 C.3     1  UNL1        0.0730
     56 H           7.0616    5.2234    0.0000 H       1  UNL1        0.0339
     57 H           7.0322    2.1571    0.0000 H       1  UNL1        0.0354
     58 H           9.7374    4.0555    0.0000 H       1  UNL1        0.0297
     59 H          10.1386    4.7442    0.0000 H       1  UNL1        0.0297
     60 H          10.0672    5.3268    0.0000 H       1  UNL1        0.0600
     61 H           9.4360    0.5261    0.0000 H       1  UNL1        0.0313
     62 H          10.2336    2.4774    0.0000 H       1  UNL1        0.0271
     63 H           9.8239    3.1625    0.0000 H       1  UNL1        0.0271
     64 H           9.2038    5.0872    0.0000 H       1  UNL1        0.0567
     65 H           9.3314    5.8185    0.0000 H       1  UNL1        0.0567
     66 H           6.2801    6.2597    0.0000 H       1  UNL1        0.0274
     67 H           6.6845    5.5714    0.0000 H       1  UNL1        0.0274
     68 H           9.2961    7.0658    0.0000 H       1  UNL1        0.0272
     69 H           8.9077    7.7632    0.0000 H       1  UNL1        0.0272
     70 H           6.3515    4.4605    0.0000 H       1  UNL1        0.0598
     71 H           9.8499    0.9102    0.0000 H       1  UNL1        0.0268
     72 H          10.2437    1.6046    0.0000 H       1  UNL1        0.0268
     73 H           9.5337    3.3546    0.0000 H       1  UNL1        0.0236
     74 H          10.2539    3.8548    0.0000 H       1  UNL1        0.0236
     75 H           9.7538    4.5750    0.0000 H       1  UNL1        0.0236
     76 H           6.3322    2.7948    0.0000 H       1  UNL1        0.0573
     77 H           9.7658    2.6680    0.0000 H       1  UNL1        0.0235
     78 H          10.2660    3.3882    0.0000 H       1  UNL1        0.0235
     79 H           9.5458    3.8883    0.0000 H       1  UNL1        0.0235
     80 H           6.5673    1.5314    0.0000 H       1  UNL1        0.0272
     81 H           6.1575    0.8463    0.0000 H       1  UNL1        0.0272
     82 H           8.1942    8.1862    0.0000 H       1  UNL1        0.0271
     83 H           7.3959    8.1924    0.0000 H       1  UNL1        0.0271
     84 H           7.2070    2.5306    0.0000 H       1  UNL1        0.0235
     85 H           6.3592    2.3069    0.0000 H       1  UNL1        0.0235
     86 H           6.5829    1.4591    0.0000 H       1  UNL1        0.0235
     87 H           7.1956   -1.0625    0.0000 H       1  UNL1        0.0603
     88 H           6.1469   -0.0716    0.0000 H       1  UNL1        0.0290
     89 H           6.5407   -0.7660    0.0000 H       1  UNL1        0.0290
     90 H          10.9351    5.8235    0.0000 H       1  UNL1        0.2098
     91 H          10.2906    0.0395    0.0000 H       1  UNL1        0.0563
     92 H           9.5973    0.4327    0.0000 H       1  UNL1        0.0563
     93 H           6.9243    8.3736    0.0000 H       1  UNL1        0.0235
     94 H           6.0773    8.6005    0.0000 H       1  UNL1        0.0235
     95 H           5.8504    7.7536    0.0000 H       1  UNL1        0.0235
     96 H           5.8873    7.8176    0.0000 H       1  UNL1        0.0235
     97 H           5.2673    7.1976    0.0000 H       1  UNL1        0.0235
     98 H           5.8873    6.5776    0.0000 H       1  UNL1        0.0235
     99 H           8.6818   -1.3610    0.0000 H       1  UNL1        0.0237
    100 H           9.5304   -1.5814    0.0000 H       1  UNL1        0.0237
    101 H           9.7508   -0.7327    0.0000 H       1  UNL1        0.0237
    102 H          10.8363   -1.0344    0.0000 H       1  UNL1        0.2094
    103 H           7.4040   -2.5636    0.0000 H       1  UNL1        0.0937
    104 H           6.8671   -3.8736    0.0000 H       1  UNL1        0.0671
    105 H           5.4641   -4.0636    0.0000 H       1  UNL1        0.0651
    106 H           5.1350   -1.6336    0.0000 H       1  UNL1        0.0621
    107 H           4.5981   -2.9436    0.0000 H       1  UNL1        0.0646
    108 H           7.7331   -4.3736    0.0000 H       1  UNL1        0.2101
    109 H           4.5790   -1.2166    0.0000 H       1  UNL1        0.0255
    110 H           3.7320   -1.4436    0.0000 H       1  UNL1        0.0255
    111 H           3.9590   -2.2905    0.0000 H       1  UNL1        0.0255
    112 H           3.7320   -3.4436    0.0000 H       1  UNL1        0.2100
    113 H           5.1350   -4.6336    0.0000 H       1  UNL1        0.0938
    114 H           5.1350   -6.8736    0.0000 H       1  UNL1        0.0671
    115 H           3.7320   -7.0636    0.0000 H       1  UNL1        0.0648
    116 H           3.4030   -4.6336    0.0000 H       1  UNL1        0.0647
    117 H           3.4030   -6.8736    0.0000 H       1  UNL1        0.0647
    118 H           6.0010   -7.3736    0.0000 H       1  UNL1        0.2101
    119 H           1.9264   -4.6459    0.0000 H       1  UNL1        0.0584
    120 H           2.3249   -5.3362    0.0000 H       1  UNL1        0.0584
    121 H           3.7320   -8.0636    0.0000 H       1  UNL1        0.2100
    122 H           2.0000   -6.4436    0.0000 H       1  UNL1        0.2100
    123 H           2.0000   -3.4436    0.0000 H       1  UNL1        0.2095
@<TRIPOS>BOND
     1     1    15    1
     2     1    25    1
     3    22     2    1
     4     2    90    1
     5    38     3    1
     6    44     3    1
     7     4    40    1
     8     4   102    1
     9     5    44    1
    10     5    47    1
    11    45     6    1
    12     6   108    1
    13    46     7    1
    14    50     7    1
    15    48     8    1
    16     8   112    1
    17     9    50    1
    18     9    53    1
    19    51    10    1
    20    10   118    1
    21    52    11    1
    22    11   121    1
    23    54    12    1
    24    12   122    1
    25    13    55    1
    26    13   123    1
    27    14    15    1
    28    14    16    1
    29    14    21    1
    30    14    30    1
    31    15    17    1
    32    15    28    1
    33    16    19    1
    34    16    24    1
    35    16    34    1
    36    17    18    1
    37    17    26    1
    38    17    56    1
    39    18    22    1
    40    18    25    1
    41    18    27    1
    42    19    20    1
    43    19    31    1
    44    19    57    1
    45    20    23    1
    46    20    35    1
    47    20    37    1
    48    21    22    1
    49    21    58    1
    50    21    59    1
    51    22    60    1
    52    23    29    1
    53    23    33    1
    54    23    61    1
    55    24    29    1
    56    24    62    1
    57    24    63    1
    58    25    64    1
    59    25    65    1
    60    26    32    1
    61    26    66    1
    62    26    67    1
    63    27    36    1
    64    27    68    1
    65    27    69    1
    66    28    31    2
    67    28    70    1
    68    29    71    1
    69    29    72    1
    70    30    73    1
    71    30    74    1
    72    30    75    1
    73    31    76    1
    74    32    36    1
    75    32    41    1
    76    32    42    1
    77    33    38    1
    78    33    40    1
    79    33    43    1
    80    34    77    1
    81    34    78    1
    82    34    79    1
    83    35    39    1
    84    35    80    1
    85    35    81    1
    86    36    82    1
    87    36    83    1
    88    37    84    1
    89    37    85    1
    90    37    86    1
    91    38    39    1
    92    38    87    1
    93    39    88    1
    94    39    89    1
    95    40    91    1
    96    40    92    1
    97    41    93    1
    98    41    94    1
    99    41    95    1
   100    42    96    1
   101    42    97    1
   102    42    98    1
   103    43    99    1
   104    43   100    1
   105    43   101    1
   106    44    45    1
   107    44   103    1
   108    45    46    1
   109    45   104    1
   110    46    48    1
   111    46   105    1
   112    47    48    1
   113    47    49    1
   114    47   106    1
   115    48   107    1
   116    49   109    1
   117    49   110    1
   118    49   111    1
   119    50    51    1
   120    50   113    1
   121    51    52    1
   122    51   114    1
   123    52    54    1
   124    52   115    1
   125    53    54    1
   126    53    55    1
   127    53   116    1
   128    54   117    1
   129    55   119    1
   130    55   120    1
