@<TRIPOS>MOLECULE
IMPHY003829
 78 82 0 0 0
SMALL
GASTEIGER

@<TRIPOS>ATOM
      1 O          10.3312   -1.2857    0.0000 O.3     1  UNL1       -0.3302
      2 O           2.5369   -3.7857    0.0000 O.3     1  UNL1       -0.3888
      3 O           7.7331   -1.7857    0.0000 O.3     1  UNL1       -0.4587
      4 O           8.5991   -3.2857    0.0000 O.3     1  UNL1       -0.3864
      5 O          10.3312   -4.2857    0.0000 O.3     1  UNL1       -0.3864
      6 O          12.0632   -1.2857    0.0000 O.3     1  UNL1       -0.4532
      7 O          12.0632   -3.2857    0.0000 O.3     1  UNL1       -0.3829
      8 O           6.8671   -0.2857    0.0000 O.2     1  UNL1       -0.2453
      9 O          12.9292    1.2143    0.0000 O.2     1  UNL1       -0.4507
     10 O          10.3312   -0.2857    0.0000 O.2     1  UNL1       -0.2830
     11 O           9.4270    1.2112    0.0000 O.3     1  UNL1       -0.5058
     12 O          11.1851    4.2836    0.0000 O.3     1  UNL1       -0.5065
     13 O          16.3933   -1.7857    0.0000 O.3     1  UNL1       -0.5068
     14 C           4.2690   -2.7857    0.0000 C.3     1  UNL1       -0.0089
     15 C           3.4030   -3.2857    0.0000 C.3     1  UNL1        0.0636
     16 C           5.1350   -3.2857    0.0000 C.3     1  UNL1       -0.0431
     17 C           4.2690   -1.7857    0.0000 C.3     1  UNL1       -0.0286
     18 C           6.0010   -2.7857    0.0000 C.3     1  UNL1       -0.0209
     19 C           9.4651   -2.7857    0.0000 C.3     1  UNL1        0.1130
     20 C           9.4651   -1.7857    0.0000 C.3     1  UNL1        0.1250
     21 C          10.3312   -3.2857    0.0000 C.3     1  UNL1        0.1152
     22 C          11.1972   -2.7857    0.0000 C.3     1  UNL1        0.1454
     23 C           6.0010   -1.7857    0.0000 C.2     1  UNL1        0.0327
     24 C           5.1350   -1.2857    0.0000 C.2     1  UNL1       -0.0737
     25 C          11.1972   -1.7857    0.0000 C.3     1  UNL1        0.2312
     26 C           2.9030   -2.4196    0.0000 C.3     1  UNL1       -0.0361
     27 C           3.9030   -4.1517    0.0000 C.3     1  UNL1       -0.0361
     28 C           8.5991   -1.2857    0.0000 C.3     1  UNL1        0.1215
     29 C           6.8671   -1.2857    0.0000 C.2     1  UNL1        0.3349
     30 C          12.0632   -0.2857    0.0000 C.ar    1  UNL1        0.2138
     31 C          12.9292    0.2143    0.0000 C.ar    1  UNL1        0.1809
     32 C          11.1972    0.2143    0.0000 C.ar    1  UNL1        0.2382
     33 C          11.1972    1.2143    0.0000 C.ar    1  UNL1        0.1092
     34 C          12.0632    1.7143    0.0000 C.ar    1  UNL1        0.1465
     35 C          13.7953   -0.2857    0.0000 C.ar    1  UNL1        0.0213
     36 C          10.2872    1.7212    0.0000 C.ar    1  UNL1        0.1348
     37 C          12.0793    2.7558    0.0000 C.ar    1  UNL1        0.0231
     38 C          14.6613    0.2143    0.0000 C.ar    1  UNL1       -0.0475
     39 C          13.7953   -1.2857    0.0000 C.ar    1  UNL1       -0.0475
     40 C          10.2792    2.7628    0.0000 C.ar    1  UNL1        0.0223
     41 C          11.1812    3.2836    0.0000 C.ar    1  UNL1        0.1239
     42 C          15.5273   -0.2857    0.0000 C.ar    1  UNL1       -0.0195
     43 C          14.6613   -1.7857    0.0000 C.ar    1  UNL1       -0.0195
     44 C          15.5273   -1.2857    0.0000 C.ar    1  UNL1        0.1169
     45 H           4.2690   -3.4057    0.0000 H       1  UNL1        0.0331
     46 H           4.7365   -3.7606    0.0000 H       1  UNL1        0.0272
     47 H           5.5335   -3.7606    0.0000 H       1  UNL1        0.0272
     48 H           4.0569   -1.2030    0.0000 H       1  UNL1        0.0311
     49 H           3.6584   -1.8933    0.0000 H       1  UNL1        0.0311
     50 H           6.2131   -3.3683    0.0000 H       1  UNL1        0.0315
     51 H           6.6116   -2.6780    0.0000 H       1  UNL1        0.0315
     52 H           9.4651   -3.4057    0.0000 H       1  UNL1        0.0647
     53 H           9.4651   -1.1657    0.0000 H       1  UNL1        0.0658
     54 H          10.8681   -3.5957    0.0000 H       1  UNL1        0.0648
     55 H          11.7341   -2.4757    0.0000 H       1  UNL1        0.0683
     56 H          11.1972   -1.1657    0.0000 H       1  UNL1        0.1084
     57 H           5.1350   -0.6657    0.0000 H       1  UNL1        0.0577
     58 H           3.3660   -4.4617    0.0000 H       1  UNL1        0.0257
     59 H           4.2130   -4.6886    0.0000 H       1  UNL1        0.0257
     60 H           4.4399   -3.8417    0.0000 H       1  UNL1        0.0257
     61 H           3.4399   -2.1096    0.0000 H       1  UNL1        0.0257
     62 H           2.5930   -1.8827    0.0000 H       1  UNL1        0.0257
     63 H           2.3660   -2.7296    0.0000 H       1  UNL1        0.0257
     64 H           8.9976   -0.8107    0.0000 H       1  UNL1        0.0725
     65 H           8.2006   -0.8107    0.0000 H       1  UNL1        0.0725
     66 H           2.0000   -3.4757    0.0000 H       1  UNL1        0.2101
     67 H           8.5991   -3.9057    0.0000 H       1  UNL1        0.2100
     68 H           9.7942   -4.5957    0.0000 H       1  UNL1        0.2100
     69 H          12.0632   -3.9057    0.0000 H       1  UNL1        0.2102
     70 H          12.6198    3.0596    0.0000 H       1  UNL1        0.0691
     71 H          14.6613    0.8343    0.0000 H       1  UNL1        0.0626
     72 H          13.2583   -1.5957    0.0000 H       1  UNL1        0.0626
     73 H           9.7410    3.0707    0.0000 H       1  UNL1        0.0691
     74 H          16.0643    0.0243    0.0000 H       1  UNL1        0.0654
     75 H          14.6613   -2.4057    0.0000 H       1  UNL1        0.0654
     76 H           8.8865    1.5150    0.0000 H       1  UNL1        0.2922
     77 H          10.6494    4.5957    0.0000 H       1  UNL1        0.2921
     78 H          16.3933   -2.4057    0.0000 H       1  UNL1        0.2921
@<TRIPOS>BOND
     1     1    20    1
     2     1    25    1
     3     2    15    1
     4     2    66    1
     5     3    28    1
     6     3    29    1
     7    19     4    1
     8     4    67    1
     9    21     5    1
    10     5    68    1
    11    25     6    1
    12     6    30    1
    13    22     7    1
    14     7    69    1
    15     8    29    2
    16     9    31   ar
    17     9    34   ar
    18    10    32    2
    19    11    36    1
    20    11    76    1
    21    12    41    1
    22    12    77    1
    23    13    44    1
    24    13    78    1
    25    14    15    1
    26    14    16    1
    27    14    17    1
    28    14    45    1
    29    15    26    1
    30    15    27    1
    31    16    18    1
    32    16    46    1
    33    16    47    1
    34    17    24    1
    35    17    48    1
    36    17    49    1
    37    18    23    1
    38    18    50    1
    39    18    51    1
    40    19    20    1
    41    19    21    1
    42    19    52    1
    43    20    28    1
    44    20    53    1
    45    21    22    1
    46    21    54    1
    47    22    25    1
    48    22    55    1
    49    23    24    2
    50    23    29    1
    51    24    57    1
    52    25    56    1
    53    26    61    1
    54    26    62    1
    55    26    63    1
    56    27    58    1
    57    27    59    1
    58    27    60    1
    59    28    64    1
    60    28    65    1
    61    30    31   ar
    62    30    32   ar
    63    31    35    1
    64    32    33   ar
    65    33    34   ar
    66    33    36   ar
    67    34    37   ar
    68    35    38   ar
    69    35    39   ar
    70    36    40   ar
    71    37    41   ar
    72    37    70    1
    73    38    42   ar
    74    38    71    1
    75    39    43   ar
    76    39    72    1
    77    40    41   ar
    78    40    73    1
    79    42    44   ar
    80    42    74    1
    81    43    44   ar
    82    43    75    1
