@<TRIPOS>MOLECULE
IMPHY008851
 64 70 0 0 0
SMALL
GASTEIGER

@<TRIPOS>ATOM
      1 O           6.0061   -5.6424    0.0000 O.3     1  UNL1       -0.3311
      2 O          12.9667   -0.3843    0.0000 O.3     1  UNL1       -0.3334
      3 O           7.9027   -2.5903    0.0000 O.3     1  UNL1       -0.2204
      4 O           4.2740   -5.6358    0.0000 O.3     1  UNL1       -0.3256
      5 O          14.2559    0.7724    0.0000 O.3     1  UNL1       -0.3257
      6 O           6.0138   -3.6424    0.0000 O.3     1  UNL1       -0.2149
      7 O          14.3024   -1.8729    0.0000 O.3     1  UNL1       -0.2149
      8 O           4.2856   -2.6358    0.0000 O.3     1  UNL1       -0.2174
      9 O          16.2594   -1.4605    0.0000 O.3     1  UNL1       -0.2174
     10 O           2.5497   -3.6291    0.0000 O.3     1  UNL1       -0.2176
     11 O          16.8807    0.4405    0.0000 O.3     1  UNL1       -0.2176
     12 O          14.8772    2.6735    0.0000 O.3     1  UNL1       -0.3259
     13 O           2.5381   -6.6291    0.0000 O.3     1  UNL1       -0.2176
     14 O          14.5200    4.3683    0.0000 O.3     1  UNL1       -0.3257
     15 O          16.8342    3.0859    0.0000 O.3     1  UNL1       -0.2149
     16 O          17.4555    4.9869    0.0000 O.3     1  UNL1       -0.2174
     17 O          16.1198    6.4755    0.0000 O.3     1  UNL1       -0.2176
     18 C          10.5331   -4.0901    0.0000 C.3     1  UNL1        0.0001
     19 C          11.3991   -3.5901    0.0000 C.3     1  UNL1        0.0001
     20 C           9.6671   -3.5901    0.0000 C.3     1  UNL1        0.0024
     21 C           8.7571   -4.0969    0.0000 C.3     1  UNL1        0.0308
     22 C          11.3991   -2.5901    0.0000 C.3     1  UNL1        0.0023
     23 C           8.7491   -5.1385    0.0000 C.3     1  UNL1        0.0047
     24 C          10.5492   -5.1316    0.0000 C.3     1  UNL1        0.0000
     25 C          12.3454   -2.2854    0.0000 C.3     1  UNL1        0.0251
     26 C           9.6671   -2.5901    0.0000 C.3     1  UNL1        0.0001
     27 C          12.3454   -3.8948    0.0000 C.3     1  UNL1        0.0001
     28 C          10.5331   -2.0901    0.0000 C.3     1  UNL1        0.0001
     29 C           9.6511   -5.6594    0.0000 C.3     1  UNL1        0.0002
     30 C           7.8136   -5.6883    0.0000 C.3     1  UNL1        0.0252
     31 C          12.9290   -3.0901    0.0000 C.3     1  UNL1        0.0023
     32 C           7.8303   -3.5329    0.0000 C.3     1  UNL1        0.0050
     33 C          11.1759   -4.8561    0.0000 C.3     1  UNL1        0.0000
     34 C          11.7413   -4.5298    0.0000 C.3     1  UNL1        0.0000
     35 C           8.7648   -3.0970    0.0000 C.3     1  UNL1        0.1819
     36 C           6.8740   -5.1458    0.0000 C.3     1  UNL1        0.1177
     37 C          12.6560   -1.3348    0.0000 C.3     1  UNL1        0.0956
     38 C           6.8824   -4.0608    0.0000 C.3     1  UNL1        0.0297
     39 C           7.3170   -6.5562    0.0000 C.3     1  UNL1        0.0024
     40 C           8.3170   -6.5524    0.0000 C.3     1  UNL1        0.0024
     41 C          13.6065   -1.6455    0.0000 C.3     1  UNL1        0.0319
     42 C          11.7055   -1.0242    0.0000 C.3     1  UNL1        0.0297
     43 C          13.8128   -2.6240    0.0000 C.3     1  UNL1        0.0278
     44 C           5.1420   -5.1391    0.0000 C.3     1  UNL1        0.2694
     45 C          13.9452   -0.1781    0.0000 C.3     1  UNL1        0.2693
     46 C           5.1458   -4.1391    0.0000 C.3     1  UNL1        0.2406
     47 C          14.6130   -0.9224    0.0000 C.3     1  UNL1        0.2406
     48 C          14.7633   -2.9347    0.0000 C.2     1  UNL1       -0.0345
     49 C           4.2817   -3.6358    0.0000 C.3     1  UNL1        0.2198
     50 C          15.5915   -0.7162    0.0000 C.3     1  UNL1        0.2198
     51 C           3.4099   -5.1324    0.0000 C.3     1  UNL1        0.1835
     52 C          15.2344    0.9786    0.0000 C.3     1  UNL1        0.1802
     53 C           3.4138   -4.1324    0.0000 C.3     1  UNL1        0.2144
     54 C          15.9022    0.2343    0.0000 C.3     1  UNL1        0.2143
     55 C          14.9695   -3.9132    0.0000 C.2     1  UNL1       -0.0478
     56 C           2.5420   -5.6291    0.0000 C.3     1  UNL1        0.2142
     57 C          15.5450    1.9292    0.0000 C.3     1  UNL1        0.1770
     58 C          14.2252   -4.5810    0.0000 C.3     1  UNL1        0.0260
     59 C          15.9200   -4.2238    0.0000 C.3     1  UNL1        0.0260
     60 C          15.1878    3.6240    0.0000 C.3     1  UNL1        0.2695
     61 C          16.1663    3.8302    0.0000 C.3     1  UNL1        0.2406
     62 C          16.4770    4.7807    0.0000 C.3     1  UNL1        0.2198
     63 C          14.8307    5.3188    0.0000 C.3     1  UNL1        0.1803
     64 C          15.8092    5.5250    0.0000 C.3     1  UNL1        0.2143
@<TRIPOS>BOND
     1     1    36    1
     2     2    37    1
     3     3    35    1
     4     4    44    1
     5     4    51    1
     6     5    45    1
     7     5    52    1
     8    12    57    1
     9    13    56    1
    10    14    60    1
    11    14    63    1
    12    18    19    1
    13    18    20    1
    14    18    24    1
    15    18    33    1
    16    19    22    1
    17    19    27    1
    18    19    34    1
    19    20    21    1
    20    20    26    1
    21    21    23    1
    22    21    32    1
    23    21    35    1
    24    22    25    1
    25    22    28    1
    26    23    29    1
    27    23    30    1
    28    24    29    1
    29    25    31    1
    30    25    37    1
    31    26    28    1
    32    27    31    1
    33    30    36    1
    34    30    39    1
    35    30    40    1
    36    32    38    1
    37    36    38    1
    38    37    41    1
    39    37    42    1
    40    41    43    1
    41    43    48    1
    42    44     1    1
    43    44    46    1
    44    45     2    1
    45    45    47    1
    46    46     6    1
    47    46    49    1
    48    47     7    1
    49    47    50    1
    50    48    55    2
    51    49     8    1
    52    49    53    1
    53    50     9    1
    54    50    54    1
    55    51    53    1
    56    51    56    1
    57    52    54    1
    58    52    57    1
    59    53    10    1
    60    54    11    1
    61    55    58    1
    62    55    59    1
    63    60    12    1
    64    60    61    1
    65    61    15    1
    66    61    62    1
    67    62    16    1
    68    62    64    1
    69    63    64    1
    70    64    17    1
