@<TRIPOS>MOLECULE
IMPHY003224
 34 36 0 0 0
SMALL
GASTEIGER

@<TRIPOS>ATOM
      1 O           6.0682   -1.0223    0.0000 O.3     1  UNL1       -0.4828
      2 O           4.3198    2.0123    0.0000 O.3     1  UNL1       -0.4942
      3 O           6.0682    1.9777    0.0000 O.2     1  UNL1       -0.2917
      4 O           2.5381   -1.0464    0.0000 O.3     1  UNL1       -0.5065
      5 C           6.9343   -0.5223    0.0000 C.3     1  UNL1        0.1322
      6 C           6.9343    0.4777    0.0000 C.3     1  UNL1        0.0520
      7 C           5.2022    0.4777    0.0000 C.ar    1  UNL1        0.1009
      8 C           6.0682    0.9777    0.0000 C.2     1  UNL1        0.1740
      9 C           7.8003   -1.0223    0.0000 C.ar    1  UNL1       -0.0069
     10 C           5.2022   -0.5223    0.0000 C.ar    1  UNL1        0.1389
     11 C           4.3083    1.0124    0.0000 C.ar    1  UNL1        0.1375
     12 C           4.3083   -1.0570    0.0000 C.ar    1  UNL1        0.0225
     13 C           7.8003   -2.0223    0.0000 C.ar    1  UNL1       -0.0551
     14 C           8.6663   -0.5223    0.0000 C.ar    1  UNL1       -0.0551
     15 C           3.4022    0.4985    0.0000 C.ar    1  UNL1        0.0225
     16 C           3.4022   -0.5431    0.0000 C.ar    1  UNL1        0.1238
     17 C           8.6663   -2.5223    0.0000 C.ar    1  UNL1       -0.0614
     18 C           9.5323   -1.0223    0.0000 C.ar    1  UNL1       -0.0614
     19 C           9.5323   -2.0223    0.0000 C.ar    1  UNL1       -0.0617
     20 C           3.4597    2.5223    0.0000 C.3     1  UNL1        0.0788
     21 H           7.6704   -0.0973    0.0000 H       1  UNL1        0.0789
     22 H           7.5449    0.3701    0.0000 H       1  UNL1        0.0385
     23 H           7.1463    1.0603    0.0000 H       1  UNL1        0.0385
     24 H           4.3154   -1.6769    0.0000 H       1  UNL1        0.0691
     25 H           7.2634   -2.3323    0.0000 H       1  UNL1        0.0621
     26 H           8.6663    0.0977    0.0000 H       1  UNL1        0.0621
     27 H           2.8665    0.8106    0.0000 H       1  UNL1        0.0691
     28 H           8.6663   -3.1423    0.0000 H       1  UNL1        0.0618
     29 H          10.0693   -0.7123    0.0000 H       1  UNL1        0.0618
     30 H          10.0693   -2.3323    0.0000 H       1  UNL1        0.0618
     31 H           3.7758    3.0556    0.0000 H       1  UNL1        0.0660
     32 H           2.9263    2.8385    0.0000 H       1  UNL1        0.0660
     33 H           3.1435    1.9890    0.0000 H       1  UNL1        0.0660
     34 H           2.0000   -0.7385    0.0000 H       1  UNL1        0.2921
@<TRIPOS>BOND
     1     1     5    1
     2     1    10    1
     3     2    11    1
     4     2    20    1
     5     3     8    2
     6     4    16    1
     7     4    34    1
     8     5     6    1
     9     5     9    1
    10     5    21    1
    11     6     8    1
    12     6    22    1
    13     6    23    1
    14     7     8    1
    15     7    10   ar
    16     7    11   ar
    17     9    13   ar
    18     9    14   ar
    19    10    12   ar
    20    11    15   ar
    21    12    16   ar
    22    12    24    1
    23    13    17   ar
    24    13    25    1
    25    14    18   ar
    26    14    26    1
    27    15    16   ar
    28    15    27    1
    29    17    19   ar
    30    17    28    1
    31    18    19   ar
    32    18    29    1
    33    19    30    1
    34    20    31    1
    35    20    32    1
    36    20    33    1
