@<TRIPOS>MOLECULE
IMPHY007204
 37 36 0 0 0
SMALL
GASTEIGER

@<TRIPOS>ATOM
      1 O           2.0000   -0.5600    0.0000 O.2     1  UNL1       -0.3010
      2 C           8.0622   -0.0600    0.0000 C.3     1  UNL1       -0.0531
      3 C           7.1962   -0.5600    0.0000 C.3     1  UNL1       -0.0531
      4 C           8.9282   -0.5600    0.0000 C.3     1  UNL1       -0.0531
      5 C           6.3301   -0.0600    0.0000 C.3     1  UNL1       -0.0530
      6 C           9.7942   -0.0600    0.0000 C.3     1  UNL1       -0.0531
      7 C           5.4641   -0.5600    0.0000 C.3     1  UNL1       -0.0527
      8 C          10.6603   -0.5600    0.0000 C.3     1  UNL1       -0.0533
      9 C           4.5981   -0.0600    0.0000 C.3     1  UNL1       -0.0466
     10 C          11.5263   -0.0600    0.0000 C.3     1  UNL1       -0.0559
     11 C           3.7320   -0.5600    0.0000 C.3     1  UNL1        0.0028
     12 C          12.3923   -0.5600    0.0000 C.3     1  UNL1       -0.0653
     13 C           2.8660   -0.0600    0.0000 C.2     1  UNL1        0.1203
     14 H           8.4607    0.4149    0.0000 H       1  UNL1        0.0265
     15 H           7.6636    0.4149    0.0000 H       1  UNL1        0.0265
     16 H           6.7976   -1.0350    0.0000 H       1  UNL1        0.0265
     17 H           7.5947   -1.0350    0.0000 H       1  UNL1        0.0265
     18 H           8.5297   -1.0350    0.0000 H       1  UNL1        0.0265
     19 H           9.3267   -1.0350    0.0000 H       1  UNL1        0.0265
     20 H           6.7287    0.4149    0.0000 H       1  UNL1        0.0265
     21 H           5.9316    0.4149    0.0000 H       1  UNL1        0.0265
     22 H          10.1928    0.4149    0.0000 H       1  UNL1        0.0265
     23 H           9.3957    0.4149    0.0000 H       1  UNL1        0.0265
     24 H           5.0656   -1.0350    0.0000 H       1  UNL1        0.0265
     25 H           5.8626   -1.0350    0.0000 H       1  UNL1        0.0265
     26 H          10.2617   -1.0350    0.0000 H       1  UNL1        0.0265
     27 H          11.0588   -1.0350    0.0000 H       1  UNL1        0.0265
     28 H           4.9966    0.4149    0.0000 H       1  UNL1        0.0269
     29 H           4.1996    0.4149    0.0000 H       1  UNL1        0.0269
     30 H          11.9248    0.4149    0.0000 H       1  UNL1        0.0263
     31 H          11.1278    0.4149    0.0000 H       1  UNL1        0.0263
     32 H           3.3335   -1.0350    0.0000 H       1  UNL1        0.0339
     33 H           4.1306   -1.0350    0.0000 H       1  UNL1        0.0339
     34 H          12.0823   -1.0969    0.0000 H       1  UNL1        0.0230
     35 H          12.9292   -0.8700    0.0000 H       1  UNL1        0.0230
     36 H          12.7023   -0.0231    0.0000 H       1  UNL1        0.0230
     37 H           2.8660    0.5600    0.0000 H       1  UNL1        0.1026
@<TRIPOS>BOND
     1     1    13    2
     2     2     3    1
     3     2     4    1
     4     2    14    1
     5     2    15    1
     6     3     5    1
     7     3    16    1
     8     3    17    1
     9     4     6    1
    10     4    18    1
    11     4    19    1
    12     5     7    1
    13     5    20    1
    14     5    21    1
    15     6     8    1
    16     6    22    1
    17     6    23    1
    18     7     9    1
    19     7    24    1
    20     7    25    1
    21     8    10    1
    22     8    26    1
    23     8    27    1
    24     9    11    1
    25     9    28    1
    26     9    29    1
    27    10    12    1
    28    10    30    1
    29    10    31    1
    30    11    13    1
    31    11    32    1
    32    11    33    1
    33    12    34    1
    34    12    35    1
    35    12    36    1
    36    13    37    1
