@<TRIPOS>MOLECULE
IMPHY016231
 20 19 0 0 0
SMALL
GASTEIGER

@<TRIPOS>ATOM
      1 O           5.4641    0.0000    0.0000 O.3     1  UNL1       -0.4804
      2 O           4.5981    1.5000    0.0000 O.2     1  UNL1       -0.2507
      3 C           3.7320    0.0000    0.0000 C.3     1  UNL1        0.0558
      4 C           2.8660    0.5000    0.0000 C.3     1  UNL1       -0.0430
      5 C           3.7320   -1.0000    0.0000 C.3     1  UNL1       -0.0430
      6 C           2.0000   -0.0000    0.0000 C.3     1  UNL1       -0.0645
      7 C           2.8660   -1.5000    0.0000 C.3     1  UNL1       -0.0645
      8 C           4.5981    0.5000    0.0000 C.2     1  UNL1        0.3078
      9 H           3.7320    0.6200    0.0000 H       1  UNL1        0.0413
     10 H           3.2646    0.9749    0.0000 H       1  UNL1        0.0270
     11 H           2.4675    0.9749    0.0000 H       1  UNL1        0.0270
     12 H           3.9441   -1.5826    0.0000 H       1  UNL1        0.0270
     13 H           4.3426   -0.8923    0.0000 H       1  UNL1        0.0270
     14 H           1.6900    0.5369    0.0000 H       1  UNL1        0.0230
     15 H           1.4631   -0.3100    0.0000 H       1  UNL1        0.0230
     16 H           2.3100   -0.5369    0.0000 H       1  UNL1        0.0230
     17 H           2.5560   -0.9631    0.0000 H       1  UNL1        0.0230
     18 H           2.3291   -1.8100    0.0000 H       1  UNL1        0.0230
     19 H           3.1760   -2.0369    0.0000 H       1  UNL1        0.0230
     20 H           6.0010    0.3100    0.0000 H       1  UNL1        0.2951
@<TRIPOS>BOND
     1     1     8    1
     2     1    20    1
     3     2     8    2
     4     3     4    1
     5     3     5    1
     6     3     8    1
     7     3     9    1
     8     4     6    1
     9     4    10    1
    10     4    11    1
    11     5     7    1
    12     5    12    1
    13     5    13    1
    14     6    14    1
    15     6    15    1
    16     6    16    1
    17     7    17    1
    18     7    18    1
    19     7    19    1
