@<TRIPOS>MOLECULE
IMPHY016732
 25 25 0 0 0
SMALL
GASTEIGER

@<TRIPOS>ATOM
      1 O           2.8090   -0.2306    0.0000 O.3     1  UNL1       -0.4598
      2 O           4.5411    1.7694    0.0000 O.3     1  UNL1       -0.3718
      3 O           4.5411   -0.2306    0.0000 O.2     1  UNL1       -0.2482
      4 C           2.8090   -1.2306    0.0000 C.3     1  UNL1        0.1032
      5 C           2.0000   -1.8184    0.0000 C.3     1  UNL1       -0.0157
      6 C           3.6180   -1.8184    0.0000 C.3     1  UNL1       -0.0157
      7 C           2.3090   -2.7694    0.0000 C.3     1  UNL1       -0.0496
      8 C           3.3090   -2.7694    0.0000 C.3     1  UNL1       -0.0496
      9 C           3.6750    0.2694    0.0000 C.2     1  UNL1        0.3334
     10 C           3.6750    1.2694    0.0000 C.3     1  UNL1        0.1441
     11 C           4.5411    2.7694    0.0000 C.3     1  UNL1        0.0372
     12 H           3.3614   -0.9491    0.0000 H       1  UNL1        0.0734
     13 H           1.6900   -1.2814    0.0000 H       1  UNL1        0.0301
     14 H           1.4336   -2.0705    0.0000 H       1  UNL1        0.0301
     15 H           4.1844   -2.0705    0.0000 H       1  UNL1        0.0301
     16 H           3.9280   -1.2814    0.0000 H       1  UNL1        0.0301
     17 H           1.7026   -2.8983    0.0000 H       1  UNL1        0.0266
     18 H           2.3738   -3.3860    0.0000 H       1  UNL1        0.0266
     19 H           3.2442   -3.3860    0.0000 H       1  UNL1        0.0266
     20 H           3.9155   -2.8983    0.0000 H       1  UNL1        0.0266
     21 H           3.4630    1.8520    0.0000 H       1  UNL1        0.0676
     22 H           3.0645    1.1618    0.0000 H       1  UNL1        0.0676
     23 H           5.1611    2.7694    0.0000 H       1  UNL1        0.0524
     24 H           4.5411    3.3894    0.0000 H       1  UNL1        0.0524
     25 H           3.9211    2.7694    0.0000 H       1  UNL1        0.0524
@<TRIPOS>BOND
     1     1     4    1
     2     1     9    1
     3     2    10    1
     4     2    11    1
     5     3     9    2
     6     4     5    1
     7     4     6    1
     8     4    12    1
     9     5     7    1
    10     5    13    1
    11     5    14    1
    12     6     8    1
    13     6    15    1
    14     6    16    1
    15     7     8    1
    16     7    17    1
    17     7    18    1
    18     8    19    1
    19     8    20    1
    20     9    10    1
    21    10    21    1
    22    10    22    1
    23    11    23    1
    24    11    24    1
    25    11    25    1
