@<TRIPOS>MOLECULE
IMPHY003842
 25 24 0 0 0
SMALL
GASTEIGER

@<TRIPOS>ATOM
      1 O           4.5981   -0.8100    0.0000 O.2     1  UNL1       -0.2879
      2 C           2.8660    0.1900    0.0000 C.2     1  UNL1       -0.0721
      3 C           3.7320    0.6900    0.0000 C.2     1  UNL1       -0.0162
      4 C           6.3301    0.1900    0.0000 C.2     1  UNL1       -0.0474
      5 C           4.5981    0.1900    0.0000 C.2     1  UNL1        0.1792
      6 C           2.0000    0.6900    0.0000 C.3     1  UNL1       -0.0436
      7 C           2.8660   -0.8100    0.0000 C.3     1  UNL1       -0.0436
      8 C           5.4641    0.6900    0.0000 C.2     1  UNL1       -0.0121
      9 C           7.1962    0.6900    0.0000 C.3     1  UNL1       -0.0396
     10 C           6.3301   -0.8100    0.0000 C.2     1  UNL1       -0.0658
     11 C           7.1962   -1.3100    0.0000 C.2     1  UNL1       -0.0984
     12 H           3.7320    1.3100    0.0000 H       1  UNL1        0.0655
     13 H           2.2460   -0.8100    0.0000 H       1  UNL1        0.0274
     14 H           2.8660   -1.4300    0.0000 H       1  UNL1        0.0274
     15 H           3.4860   -0.8100    0.0000 H       1  UNL1        0.0274
     16 H           2.3100    1.2269    0.0000 H       1  UNL1        0.0274
     17 H           1.4631    1.0000    0.0000 H       1  UNL1        0.0274
     18 H           1.6900    0.1531    0.0000 H       1  UNL1        0.0274
     19 H           5.4641    1.3100    0.0000 H       1  UNL1        0.0658
     20 H           7.5062    0.1531    0.0000 H       1  UNL1        0.0278
     21 H           7.7331    1.0000    0.0000 H       1  UNL1        0.0278
     22 H           6.8862    1.2269    0.0000 H       1  UNL1        0.0278
     23 H           5.7932   -1.1200    0.0000 H       1  UNL1        0.0614
     24 H           7.1962   -1.9300    0.0000 H       1  UNL1        0.0535
     25 H           7.7331   -1.0000    0.0000 H       1  UNL1        0.0535
@<TRIPOS>BOND
     1     1     5    2
     2     2     3    2
     3     2     6    1
     4     2     7    1
     5     3     5    1
     6     3    12    1
     7     4     8    2
     8     4     9    1
     9     4    10    1
    10     5     8    1
    11     6    16    1
    12     6    17    1
    13     6    18    1
    14     7    13    1
    15     7    14    1
    16     7    15    1
    17     8    19    1
    18     9    20    1
    19     9    21    1
    20     9    22    1
    21    10    11    2
    22    10    23    1
    23    11    24    1
    24    11    25    1
