@<TRIPOS>MOLECULE
IMPHY009916
 55 58 0 0 0
SMALL
GASTEIGER

@<TRIPOS>ATOM
      1 O          11.0871   -0.1972    0.0000 O.3     1  UNL1       -0.3312
      2 O           9.9754    1.3402    0.0000 O.3     1  UNL1       -0.4623
      3 O           9.1986   -1.9533    0.0000 O.3     1  UNL1       -0.4578
      4 O           7.3529   -0.7977    0.0000 O.3     1  UNL1       -0.5055
      5 O           6.6036    2.6620    0.0000 O.3     1  UNL1       -0.4942
      6 O          10.6016   -2.9689    0.0000 O.2     1  UNL1       -0.2512
      7 O           5.6653   -0.2383    0.0000 O.2     1  UNL1       -0.2870
      8 C           9.4754   -0.1986    0.0000 C.3     1  UNL1        0.0932
      9 C           9.7850   -1.1433    0.0000 C.3     1  UNL1        0.1441
     10 C          10.7791   -1.1424    0.0000 C.3     1  UNL1        0.1054
     11 C          10.2844    0.3892    0.0000 C.3     1  UNL1        0.2129
     12 C           8.6663    0.3892    0.0000 C.ar    1  UNL1        0.0493
     13 C          11.7301   -1.4514    0.0000 C.3     1  UNL1       -0.0324
     14 C          10.7791   -2.1424    0.0000 C.3     1  UNL1       -0.0324
     15 C           8.9754    1.3402    0.0000 C.ar    1  UNL1        0.1346
     16 C           7.6509    0.1569    0.0000 C.ar    1  UNL1        0.1384
     17 C           8.2904    2.1250    0.0000 C.ar    1  UNL1        0.0231
     18 C           6.9480    0.9256    0.0000 C.ar    1  UNL1        0.1050
     19 C           7.2699    1.9162    0.0000 C.ar    1  UNL1        0.1379
     20 C           9.6069   -2.8661    0.0000 C.2     1  UNL1        0.3043
     21 C           5.9706    0.7139    0.0000 C.2     1  UNL1        0.1931
     22 C           9.0205   -3.6762    0.0000 C.3     1  UNL1        0.0332
     23 C           5.2987    1.4545    0.0000 C.2     1  UNL1       -0.0135
     24 C           6.9163    3.6118    0.0000 C.3     1  UNL1        0.0788
     25 C           4.3213    1.2428    0.0000 C.2     1  UNL1       -0.0510
     26 C           3.6493    1.9834    0.0000 C.ar    1  UNL1       -0.0249
     27 C           3.9547    2.9356    0.0000 C.ar    1  UNL1       -0.0546
     28 C           2.6720    1.7717    0.0000 C.ar    1  UNL1       -0.0546
     29 C           3.2827    3.6762    0.0000 C.ar    1  UNL1       -0.0612
     30 C           2.0000    2.5122    0.0000 C.ar    1  UNL1       -0.0612
     31 C           2.3053    3.4645    0.0000 C.ar    1  UNL1       -0.0617
     32 H           8.7883   -0.6991    0.0000 H       1  UNL1        0.0450
     33 H           9.1724   -1.0476    0.0000 H       1  UNL1        0.0771
     34 H          10.9727    0.8879    0.0000 H       1  UNL1        0.1063
     35 H          11.5385   -2.0411    0.0000 H       1  UNL1        0.0258
     36 H          12.3198   -1.6430    0.0000 H       1  UNL1        0.0258
     37 H          11.9217   -0.8618    0.0000 H       1  UNL1        0.0258
     38 H          10.1591   -2.1424    0.0000 H       1  UNL1        0.0258
     39 H          10.7791   -2.7624    0.0000 H       1  UNL1        0.0258
     40 H          11.3991   -2.1424    0.0000 H       1  UNL1        0.0258
     41 H           8.4888    2.7123    0.0000 H       1  UNL1        0.0691
     42 H           6.7480   -0.9336    0.0000 H       1  UNL1        0.2922
     43 H           8.5183   -3.3126    0.0000 H       1  UNL1        0.0342
     44 H           8.6570   -4.1784    0.0000 H       1  UNL1        0.0342
     45 H           9.5228   -4.0397    0.0000 H       1  UNL1        0.0342
     46 H           5.4880    2.0449    0.0000 H       1  UNL1        0.0656
     47 H           7.5052    3.4180    0.0000 H       1  UNL1        0.0660
     48 H           7.1102    4.2007    0.0000 H       1  UNL1        0.0660
     49 H           6.3274    3.8057    0.0000 H       1  UNL1        0.0660
     50 H           4.1320    0.6524    0.0000 H       1  UNL1        0.0625
     51 H           4.5606    3.0668    0.0000 H       1  UNL1        0.0623
     52 H           2.4827    1.1813    0.0000 H       1  UNL1        0.0623
     53 H           3.4720    4.2665    0.0000 H       1  UNL1        0.0618
     54 H           1.3940    2.3810    0.0000 H       1  UNL1        0.0618
     55 H           1.8887    3.9236    0.0000 H       1  UNL1        0.0618
@<TRIPOS>BOND
     1     1    10    1
     2     1    11    1
     3     2    11    1
     4     2    15    1
     5     9     3    1
     6     3    20    1
     7     4    16    1
     8     4    42    1
     9     5    19    1
    10     5    24    1
    11     6    20    2
    12     7    21    2
    13     8     9    1
    14     8    11    1
    15     8    12    1
    16     8    32    1
    17     9    10    1
    18     9    33    1
    19    10    13    1
    20    10    14    1
    21    11    34    1
    22    12    15   ar
    23    12    16   ar
    24    13    35    1
    25    13    36    1
    26    13    37    1
    27    14    38    1
    28    14    39    1
    29    14    40    1
    30    15    17   ar
    31    16    18   ar
    32    17    19   ar
    33    17    41    1
    34    18    19   ar
    35    18    21    1
    36    20    22    1
    37    21    23    1
    38    22    43    1
    39    22    44    1
    40    22    45    1
    41    23    25    2
    42    23    46    1
    43    24    47    1
    44    24    48    1
    45    24    49    1
    46    25    26    1
    47    25    50    1
    48    26    27   ar
    49    26    28   ar
    50    27    29   ar
    51    27    51    1
    52    28    30   ar
    53    28    52    1
    54    29    31   ar
    55    29    53    1
    56    30    31   ar
    57    30    54    1
    58    31    55    1
