@<TRIPOS>MOLECULE
IMPHY004452
 52 53 0 0 0
SMALL
GASTEIGER

@<TRIPOS>ATOM
      1 O           4.9500    1.7181    0.0000 O.3     1  UNL1       -0.4560
      2 O           3.4600   -0.9555    0.0000 O.2     1  UNL1       -0.4624
      3 O           6.5323    2.4226    0.0000 O.2     1  UNL1       -0.2505
      4 O           2.5369   -2.5433    0.0000 O.3     1  UNL1       -0.5061
      5 O           6.0010   -4.5433    0.0000 O.3     1  UNL1       -0.5067
      6 C           5.3568    0.8046    0.0000 C.3     1  UNL1        0.1343
      7 C           5.1311    3.4407    0.0000 C.3     1  UNL1        0.0534
      8 C           6.3513    0.7001    0.0000 C.3     1  UNL1        0.0071
      9 C           4.7690   -0.0044    0.0000 C.ar    1  UNL1        0.0313
     10 C           5.7189    4.2497    0.0000 C.3     1  UNL1       -0.0432
     11 C           5.5378    2.5272    0.0000 C.2     1  UNL1        0.3105
     12 C           5.0780   -0.9555    0.0000 C.ar    1  UNL1       -0.0091
     13 C           4.1366    3.5452    0.0000 C.3     1  UNL1       -0.0523
     14 C           4.2690   -1.5433    0.0000 C.ar    1  UNL1        0.1388
     15 C           6.9391    1.5091    0.0000 C.2     1  UNL1       -0.0815
     16 C           3.7690   -0.0044    0.0000 C.ar    1  UNL1        0.0993
     17 C           5.3121    5.1633    0.0000 C.3     1  UNL1       -0.0645
     18 C           4.2690   -2.5433    0.0000 C.ar    1  UNL1        0.0621
     19 C           7.9336    1.4046    0.0000 C.2     1  UNL1       -0.0795
     20 C           3.4030   -3.0433    0.0000 C.ar    1  UNL1        0.1277
     21 C           5.1350   -3.0433    0.0000 C.ar    1  UNL1       -0.0060
     22 C           8.5214    2.2136    0.0000 C.3     1  UNL1       -0.0440
     23 C           8.3403    0.4910    0.0000 C.3     1  UNL1       -0.0440
     24 C           5.1350   -4.0433    0.0000 C.ar    1  UNL1        0.1178
     25 C           3.4030   -4.0433    0.0000 C.ar    1  UNL1       -0.0160
     26 C           4.2690   -4.5433    0.0000 C.ar    1  UNL1       -0.0167
     27 H           5.8564    1.4923    0.0000 H       1  UNL1        0.0789
     28 H           4.7854    4.2172    0.0000 H       1  UNL1        0.0410
     29 H           6.1804    0.1041    0.0000 H       1  UNL1        0.0347
     30 H           6.9086    0.4283    0.0000 H       1  UNL1        0.0347
     31 H           6.1496    3.8037    0.0000 H       1  UNL1        0.0270
     32 H           6.2329    4.5964    0.0000 H       1  UNL1        0.0270
     33 H           5.6677   -1.1471    0.0000 H       1  UNL1        0.0659
     34 H           4.2014    4.1618    0.0000 H       1  UNL1        0.0238
     35 H           3.5200    3.6100    0.0000 H       1  UNL1        0.0238
     36 H           4.0718    2.9286    0.0000 H       1  UNL1        0.0238
     37 H           6.6869    2.0755    0.0000 H       1  UNL1        0.0573
     38 H           3.4046    0.4972    0.0000 H       1  UNL1        0.1033
     39 H           5.8785    5.4154    0.0000 H       1  UNL1        0.0230
     40 H           5.0600    5.7297    0.0000 H       1  UNL1        0.0230
     41 H           4.7457    4.9111    0.0000 H       1  UNL1        0.0230
     42 H           5.6720   -2.7333    0.0000 H       1  UNL1        0.0662
     43 H           9.0230    1.8491    0.0000 H       1  UNL1        0.0274
     44 H           8.8858    2.7152    0.0000 H       1  UNL1        0.0274
     45 H           8.0198    2.5780    0.0000 H       1  UNL1        0.0274
     46 H           7.7739    0.2388    0.0000 H       1  UNL1        0.0274
     47 H           8.5925   -0.0754    0.0000 H       1  UNL1        0.0274
     48 H           8.9067    0.7432    0.0000 H       1  UNL1        0.0274
     49 H           2.8660   -4.3533    0.0000 H       1  UNL1        0.0655
     50 H           4.2690   -5.1633    0.0000 H       1  UNL1        0.0655
     51 H           2.0000   -2.8533    0.0000 H       1  UNL1        0.2922
     52 H           6.0010   -5.1633    0.0000 H       1  UNL1        0.2921
@<TRIPOS>BOND
     1     1     6    1
     2     1    11    1
     3     2    14   ar
     4     2    16   ar
     5     3    11    2
     6     4    20    1
     7     4    51    1
     8     5    24    1
     9     5    52    1
    10     6     8    1
    11     6     9    1
    12     6    27    1
    13     7    10    1
    14     7    11    1
    15     7    13    1
    16     7    28    1
    17     8    15    1
    18     8    29    1
    19     8    30    1
    20     9    12   ar
    21     9    16   ar
    22    10    17    1
    23    10    31    1
    24    10    32    1
    25    12    14   ar
    26    12    33    1
    27    13    34    1
    28    13    35    1
    29    13    36    1
    30    14    18    1
    31    15    19    2
    32    15    37    1
    33    16    38    1
    34    17    39    1
    35    17    40    1
    36    17    41    1
    37    18    20   ar
    38    18    21   ar
    39    19    22    1
    40    19    23    1
    41    20    25   ar
    42    21    24   ar
    43    21    42    1
    44    22    43    1
    45    22    44    1
    46    22    45    1
    47    23    46    1
    48    23    47    1
    49    23    48    1
    50    24    26   ar
    51    25    26   ar
    52    25    49    1
    53    26    50    1
