@<TRIPOS>MOLECULE
IMPHY001559
 21 21 0 0 0
SMALL
GASTEIGER

@<TRIPOS>ATOM
      1 O           2.5369    0.2500    0.0000 O.3     1  UNL1       -0.5061
      2 O           3.4030    1.7500    0.0000 O.2     1  UNL1       -0.2922
      3 C           4.2690    0.2500    0.0000 C.ar    1  UNL1        0.0587
      4 C           5.1350   -1.2500    0.0000 C.ar    1  UNL1       -0.0496
      5 C           5.1350   -0.2500    0.0000 C.ar    1  UNL1       -0.0448
      6 C           3.4030   -0.2500    0.0000 C.ar    1  UNL1        0.1273
      7 C           4.2690   -1.7500    0.0000 C.ar    1  UNL1       -0.0554
      8 C           3.4030   -1.2500    0.0000 C.ar    1  UNL1       -0.0192
      9 C           4.2690    1.2500    0.0000 C.2     1  UNL1        0.1636
     10 C           6.0010   -1.7500    0.0000 C.3     1  UNL1       -0.0397
     11 C           5.1350    1.7500    0.0000 C.3     1  UNL1       -0.0013
     12 H           5.6720    0.0600    0.0000 H       1  UNL1        0.0628
     13 H           4.2690   -2.3700    0.0000 H       1  UNL1        0.0621
     14 H           2.8660   -1.5600    0.0000 H       1  UNL1        0.0654
     15 H           5.6910   -2.2869    0.0000 H       1  UNL1        0.0278
     16 H           6.5380   -2.0600    0.0000 H       1  UNL1        0.0278
     17 H           6.3110   -1.2131    0.0000 H       1  UNL1        0.0278
     18 H           5.4450    1.2131    0.0000 H       1  UNL1        0.0309
     19 H           5.6720    2.0600    0.0000 H       1  UNL1        0.0309
     20 H           4.8250    2.2869    0.0000 H       1  UNL1        0.0309
     21 H           2.0000   -0.0600    0.0000 H       1  UNL1        0.2922
@<TRIPOS>BOND
     1     1     6    1
     2     1    21    1
     3     2     9    2
     4     3     5   ar
     5     3     6   ar
     6     3     9    1
     7     4     5   ar
     8     4     7   ar
     9     4    10    1
    10     5    12    1
    11     6     8   ar
    12     7     8   ar
    13     7    13    1
    14     8    14    1
    15     9    11    1
    16    10    15    1
    17    10    16    1
    18    10    17    1
    19    11    18    1
    20    11    19    1
    21    11    20    1
