@<TRIPOS>MOLECULE
IMPHY006812
 58 59 0 0 0
SMALL
GASTEIGER

@<TRIPOS>ATOM
      1 O           3.9057    0.4285    0.0000 O.3     1  UNL1       -0.3877
      2 O           3.7320   -3.7828    0.0000 O.3     1  UNL1       -0.3910
      3 C           4.5981    1.9133    0.0000 C.3     1  UNL1        0.0003
      4 C           4.5981    2.9133    0.0000 C.3     1  UNL1       -0.0278
      5 C           3.7320    1.4133    0.0000 C.3     1  UNL1        0.0745
      6 C           5.4920    3.4480    0.0000 C.3     1  UNL1       -0.0315
      7 C           5.4920    1.3787    0.0000 C.3     1  UNL1       -0.0447
      8 C           2.8660    1.9133    0.0000 C.3     1  UNL1       -0.0144
      9 C           3.7320    3.4133    0.0000 C.3     1  UNL1       -0.0488
     10 C           2.8660    2.9133    0.0000 C.3     1  UNL1       -0.0476
     11 C           6.3981    2.9341    0.0000 C.3     1  UNL1       -0.0476
     12 C           6.3981    1.8925    0.0000 C.3     1  UNL1       -0.0520
     13 C           4.9402    0.9737    0.0000 C.3     1  UNL1       -0.0567
     14 C           3.2320    0.5473    0.0000 C.3     1  UNL1       -0.0196
     15 C           5.9820    4.3198    0.0000 C.3     1  UNL1       -0.0595
     16 C           4.9820    4.3082    0.0000 C.3     1  UNL1       -0.0595
     17 C           2.0000    1.4133    0.0000 C.3     1  UNL1       -0.0598
     18 C           3.7320   -0.3187    0.0000 C.3     1  UNL1       -0.0293
     19 C           3.2320   -1.1847    0.0000 C.2     1  UNL1       -0.0743
     20 C           2.2320   -1.1847    0.0000 C.3     1  UNL1       -0.0437
     21 C           3.7320   -2.0508    0.0000 C.2     1  UNL1       -0.0600
     22 C           3.2320   -2.9168    0.0000 C.3     1  UNL1        0.0626
     23 H           4.5915    3.7633    0.0000 H       1  UNL1        0.0312
     24 H           5.0874    0.9089    0.0000 H       1  UNL1        0.0272
     25 H           5.8856    0.8997    0.0000 H       1  UNL1        0.0272
     26 H           2.8660    1.2933    0.0000 H       1  UNL1        0.0326
     27 H           4.1306    3.8883    0.0000 H       1  UNL1        0.0268
     28 H           3.3335    3.8883    0.0000 H       1  UNL1        0.0268
     29 H           2.6540    3.4960    0.0000 H       1  UNL1        0.0269
     30 H           2.2554    2.8057    0.0000 H       1  UNL1        0.0269
     31 H           7.0089    2.8281    0.0000 H       1  UNL1        0.0271
     32 H           6.6071    3.5178    0.0000 H       1  UNL1        0.0271
     33 H           6.6071    1.3088    0.0000 H       1  UNL1        0.0266
     34 H           7.0089    1.9986    0.0000 H       1  UNL1        0.0266
     35 H           4.3576    0.7616    0.0000 H       1  UNL1        0.0236
     36 H           5.1523    0.3911    0.0000 H       1  UNL1        0.0236
     37 H           5.5228    1.1858    0.0000 H       1  UNL1        0.0236
     38 H           2.7571    0.9458    0.0000 H       1  UNL1        0.0296
     39 H           2.7571    0.1488    0.0000 H       1  UNL1        0.0296
     40 H           6.5225    4.0160    0.0000 H       1  UNL1        0.0235
     41 H           6.2857    4.8602    0.0000 H       1  UNL1        0.0235
     42 H           5.4415    4.6235    0.0000 H       1  UNL1        0.0235
     43 H           5.5154    4.6244    0.0000 H       1  UNL1        0.0235
     44 H           4.6658    4.8415    0.0000 H       1  UNL1        0.0235
     45 H           4.4487    3.9920    0.0000 H       1  UNL1        0.0235
     46 H           1.6900    1.9503    0.0000 H       1  UNL1        0.0233
     47 H           1.4631    1.1033    0.0000 H       1  UNL1        0.0233
     48 H           2.3100    0.8764    0.0000 H       1  UNL1        0.0233
     49 H           4.4883    0.2165    0.0000 H       1  UNL1        0.2102
     50 H           4.2070   -0.7172    0.0000 H       1  UNL1        0.0311
     51 H           4.2070    0.0798    0.0000 H       1  UNL1        0.0311
     52 H           2.2320   -0.5647    0.0000 H       1  UNL1        0.0274
     53 H           1.6120   -1.1847    0.0000 H       1  UNL1        0.0274
     54 H           2.2320   -1.8047    0.0000 H       1  UNL1        0.0274
     55 H           4.3520   -2.0508    0.0000 H       1  UNL1        0.0594
     56 H           2.7571   -2.5183    0.0000 H       1  UNL1        0.0601
     57 H           2.7571   -3.3153    0.0000 H       1  UNL1        0.0601
     58 H           3.4220   -4.3198    0.0000 H       1  UNL1        0.2098
@<TRIPOS>BOND
     1     5     1    1
     2     1    49    1
     3     2    22    1
     4     2    58    1
     5     3     4    1
     6     3     5    1
     7     3     7    1
     8     3    13    1
     9     4     6    1
    10     4     9    1
    11     4    23    1
    12     5     8    1
    13     5    14    1
    14     6    11    1
    15     6    15    1
    16     6    16    1
    17     7    12    1
    18     7    24    1
    19     7    25    1
    20     8    10    1
    21     8    17    1
    22     8    26    1
    23     9    10    1
    24     9    27    1
    25     9    28    1
    26    10    29    1
    27    10    30    1
    28    11    12    1
    29    11    31    1
    30    11    32    1
    31    12    33    1
    32    12    34    1
    33    13    35    1
    34    13    36    1
    35    13    37    1
    36    14    18    1
    37    14    38    1
    38    14    39    1
    39    15    40    1
    40    15    41    1
    41    15    42    1
    42    16    43    1
    43    16    44    1
    44    16    45    1
    45    17    46    1
    46    17    47    1
    47    17    48    1
    48    18    19    1
    49    18    50    1
    50    18    51    1
    51    19    20    1
    52    19    21    2
    53    20    52    1
    54    20    53    1
    55    20    54    1
    56    21    22    1
    57    21    55    1
    58    22    56    1
    59    22    57    1
