@<TRIPOS>MOLECULE
IMPHY005396
 36 38 0 0 0
SMALL
GASTEIGER

@<TRIPOS>ATOM
      1 O           2.7493   -1.0043    0.0000 O.3     1  UNL1       -0.5063
      2 O           4.8717   -3.4052    0.0000 O.2     1  UNL1       -0.2974
      3 O           2.0000    2.4554    0.0000 O.3     1  UNL1       -0.4950
      4 C           4.8717   -0.4052    0.0000 C.3     1  UNL1        0.0005
      5 C           5.6808    0.1826    0.0000 C.3     1  UNL1       -0.0392
      6 C           5.7378   -0.9052    0.0000 C.3     1  UNL1       -0.0365
      7 C           4.0057   -0.9052    0.0000 C.3     1  UNL1       -0.0365
      8 C           4.0627    0.1826    0.0000 C.ar    1  UNL1        0.0036
      9 C           5.3717    1.1336    0.0000 C.3     1  UNL1       -0.0264
     10 C           4.3717    1.1336    0.0000 C.ar    1  UNL1       -0.0367
     11 C           5.7378   -1.9052    0.0000 C.3     1  UNL1        0.0066
     12 C           4.0057   -1.9052    0.0000 C.3     1  UNL1        0.0066
     13 C           4.8717   -2.4052    0.0000 C.2     1  UNL1        0.1334
     14 C           3.0473   -0.0497    0.0000 C.ar    1  UNL1        0.1243
     15 C           3.6868    1.9184    0.0000 C.ar    1  UNL1       -0.0163
     16 C           2.3444    0.7190    0.0000 C.ar    1  UNL1        0.0218
     17 C           2.6663    1.7096    0.0000 C.ar    1  UNL1        0.1238
     18 C           2.3127    3.4052    0.0000 C.3     1  UNL1        0.0788
     19 H           5.9908   -0.3544    0.0000 H       1  UNL1        0.0277
     20 H           6.2472    0.4347    0.0000 H       1  UNL1        0.0277
     21 H           6.3484   -1.0129    0.0000 H       1  UNL1        0.0278
     22 H           5.9498   -0.3226    0.0000 H       1  UNL1        0.0278
     23 H           3.7937   -0.3226    0.0000 H       1  UNL1        0.0278
     24 H           3.3951   -1.0129    0.0000 H       1  UNL1        0.0278
     25 H           5.9782    1.2625    0.0000 H       1  UNL1        0.0314
     26 H           5.3069    1.7502    0.0000 H       1  UNL1        0.0314
     27 H           5.9498   -2.4878    0.0000 H       1  UNL1        0.0342
     28 H           6.3484   -1.7976    0.0000 H       1  UNL1        0.0342
     29 H           3.3951   -1.7976    0.0000 H       1  UNL1        0.0342
     30 H           3.7937   -2.4878    0.0000 H       1  UNL1        0.0342
     31 H           3.8852    2.5058    0.0000 H       1  UNL1        0.0657
     32 H           1.7384    0.5878    0.0000 H       1  UNL1        0.0691
     33 H           2.1444   -1.1402    0.0000 H       1  UNL1        0.2921
     34 H           2.9016    3.2114    0.0000 H       1  UNL1        0.0660
     35 H           2.5065    3.9941    0.0000 H       1  UNL1        0.0660
     36 H           1.7238    3.5991    0.0000 H       1  UNL1        0.0660
@<TRIPOS>BOND
     1     1    14    1
     2     1    33    1
     3     2    13    2
     4     3    17    1
     5     3    18    1
     6     4     5    1
     7     4     6    1
     8     4     7    1
     9     4     8    1
    10     5     9    1
    11     5    19    1
    12     5    20    1
    13     6    11    1
    14     6    21    1
    15     6    22    1
    16     7    12    1
    17     7    23    1
    18     7    24    1
    19     8    10   ar
    20     8    14   ar
    21     9    10    1
    22     9    25    1
    23     9    26    1
    24    10    15   ar
    25    11    13    1
    26    11    27    1
    27    11    28    1
    28    12    13    1
    29    12    29    1
    30    12    30    1
    31    14    16   ar
    32    15    17   ar
    33    15    31    1
    34    16    17   ar
    35    16    32    1
    36    18    34    1
    37    18    35    1
    38    18    36    1
