@<TRIPOS>MOLECULE
IMPHY006615
 55 58 0 0 0
SMALL
GASTEIGER

@<TRIPOS>ATOM
      1 O           5.1350   -2.4276    0.0000 O.3     1  UNL1       -0.3313
      2 O           6.8671   -2.4276    0.0000 O.3     1  UNL1       -0.4572
      3 O           5.1350   -5.4276    0.0000 O.3     1  UNL1       -0.3864
      4 O           3.4030   -4.4276    0.0000 O.3     1  UNL1       -0.3865
      5 O           6.8671   -4.4276    0.0000 O.3     1  UNL1       -0.3829
      6 O           2.5369   -2.9276    0.0000 O.3     1  UNL1       -0.3924
      7 O           7.7331    2.0724    0.0000 O.3     1  UNL1       -0.4802
      8 O           5.1350    1.5724    0.0000 O.3     1  UNL1       -0.3798
      9 O           5.1350   -1.4276    0.0000 O.3     1  UNL1       -0.5033
     10 O           5.1350    3.5724    0.0000 O.2     1  UNL1       -0.2889
     11 O           5.9793    5.1039    0.0000 O.3     1  UNL1       -0.5058
     12 O           9.5191    5.1175    0.0000 O.3     1  UNL1       -0.5065
     13 C           5.1350   -4.4276    0.0000 C.3     1  UNL1        0.1152
     14 C           4.2690   -3.9276    0.0000 C.3     1  UNL1        0.1120
     15 C           6.0010   -3.9276    0.0000 C.3     1  UNL1        0.1454
     16 C           4.2690   -2.9276    0.0000 C.3     1  UNL1        0.1140
     17 C           6.0010   -2.9276    0.0000 C.3     1  UNL1        0.2310
     18 C           3.4030   -2.4276    0.0000 C.3     1  UNL1        0.0731
     19 C           6.8671    1.5724    0.0000 C.3     1  UNL1        0.1582
     20 C           6.8671   -1.4276    0.0000 C.ar    1  UNL1        0.1652
     21 C           6.0010    2.0724    0.0000 C.3     1  UNL1        0.1585
     22 C           6.8671    0.5724    0.0000 C.ar    1  UNL1       -0.0007
     23 C           6.0010   -0.9276    0.0000 C.ar    1  UNL1        0.1589
     24 C           7.7331   -0.9276    0.0000 C.ar    1  UNL1       -0.0158
     25 C           6.0010    0.0725    0.0000 C.ar    1  UNL1       -0.0098
     26 C           6.0010    3.0724    0.0000 C.2     1  UNL1        0.2024
     27 C           7.7331    0.0725    0.0000 C.ar    1  UNL1       -0.0513
     28 C           6.8671    3.5724    0.0000 C.ar    1  UNL1        0.1033
     29 C           7.7331    3.0724    0.0000 C.ar    1  UNL1        0.1391
     30 C           6.8510    4.6140    0.0000 C.ar    1  UNL1        0.1344
     31 C           8.6431    3.5793    0.0000 C.ar    1  UNL1        0.0225
     32 C           8.6511    4.6209    0.0000 C.ar    1  UNL1        0.1238
     33 C           7.7490    5.1417    0.0000 C.ar    1  UNL1        0.0222
     34 H           5.6720   -4.7376    0.0000 H       1  UNL1        0.0648
     35 H           3.7320   -3.6176    0.0000 H       1  UNL1        0.0647
     36 H           6.5380   -3.6176    0.0000 H       1  UNL1        0.0683
     37 H           4.2690   -2.3076    0.0000 H       1  UNL1        0.0647
     38 H           6.0010   -2.3076    0.0000 H       1  UNL1        0.1084
     39 H           3.8015   -1.9526    0.0000 H       1  UNL1        0.0584
     40 H           3.0044   -1.9526    0.0000 H       1  UNL1        0.0584
     41 H           5.6720   -5.7376    0.0000 H       1  UNL1        0.2100
     42 H           7.4040    1.2624    0.0000 H       1  UNL1        0.0815
     43 H           3.4030   -5.0476    0.0000 H       1  UNL1        0.2100
     44 H           7.4040   -4.1175    0.0000 H       1  UNL1        0.2102
     45 H           6.0010    1.4524    0.0000 H       1  UNL1        0.0718
     46 H           5.4641    0.3824    0.0000 H       1  UNL1        0.0659
     47 H           8.2700   -1.2376    0.0000 H       1  UNL1        0.0655
     48 H           8.2700    0.3824    0.0000 H       1  UNL1        0.0623
     49 H           2.0000   -2.6176    0.0000 H       1  UNL1        0.2095
     50 H           9.1764    3.2631    0.0000 H       1  UNL1        0.0691
     51 H           4.5981    1.8824    0.0000 H       1  UNL1        0.2105
     52 H           7.7466    5.7617    0.0000 H       1  UNL1        0.0691
     53 H           4.5981   -1.1176    0.0000 H       1  UNL1        0.2923
     54 H           5.9721    5.7239    0.0000 H       1  UNL1        0.2922
     55 H           9.5214    5.7376    0.0000 H       1  UNL1        0.2921
@<TRIPOS>BOND
     1     1    16    1
     2     1    17    1
     3    17     2    1
     4     2    20    1
     5    13     3    1
     6     3    41    1
     7    14     4    1
     8     4    43    1
     9    15     5    1
    10     5    44    1
    11     6    18    1
    12     6    49    1
    13     7    19    1
    14     7    29    1
    15    21     8    1
    16     8    51    1
    17     9    23    1
    18     9    53    1
    19    10    26    2
    20    11    30    1
    21    11    54    1
    22    12    32    1
    23    12    55    1
    24    13    14    1
    25    13    15    1
    26    13    34    1
    27    14    16    1
    28    14    35    1
    29    15    17    1
    30    15    36    1
    31    16    18    1
    32    16    37    1
    33    17    38    1
    34    18    39    1
    35    18    40    1
    36    19    21    1
    37    19    22    1
    38    19    42    1
    39    20    23   ar
    40    20    24   ar
    41    21    26    1
    42    21    45    1
    43    22    25   ar
    44    22    27   ar
    45    23    25   ar
    46    24    27   ar
    47    24    47    1
    48    25    46    1
    49    26    28    1
    50    27    48    1
    51    28    29   ar
    52    28    30   ar
    53    29    31   ar
    54    30    33   ar
    55    31    32   ar
    56    31    50    1
    57    32    33   ar
    58    33    52    1
