@<TRIPOS>MOLECULE
IMPHY004786
 45 47 0 0 0
SMALL
GASTEIGER

@<TRIPOS>ATOM
      1 O           6.0682   -0.5328    0.0000 O.3     1  UNL1       -0.4898
      2 O           6.0682    2.4672    0.0000 O.2     1  UNL1       -0.2912
      3 O           2.5381   -0.5569    0.0000 O.3     1  UNL1       -0.5064
      4 O           8.6663   -0.0328    0.0000 O.3     1  UNL1       -0.5064
      5 O          10.3984    2.9672    0.0000 O.3     1  UNL1       -0.5066
      6 C           6.9343    0.9672    0.0000 C.3     1  UNL1        0.0846
      7 C           6.9343   -0.0328    0.0000 C.3     1  UNL1        0.1036
      8 C           6.0682    1.4672    0.0000 C.2     1  UNL1        0.1774
      9 C           5.2022    0.9672    0.0000 C.ar    1  UNL1        0.0602
     10 C           5.2022   -0.0328    0.0000 C.ar    1  UNL1        0.1379
     11 C           7.8003    1.4672    0.0000 C.ar    1  UNL1        0.0081
     12 C           4.3083   -0.5674    0.0000 C.ar    1  UNL1        0.0400
     13 C           4.3083    1.5019    0.0000 C.ar    1  UNL1       -0.0443
     14 C           4.3198   -1.5674    0.0000 C.3     1  UNL1       -0.0023
     15 C           3.4022   -0.0536    0.0000 C.ar    1  UNL1        0.1238
     16 C           8.6663    0.9672    0.0000 C.ar    1  UNL1        0.1243
     17 C           7.8003    2.4672    0.0000 C.ar    1  UNL1       -0.0509
     18 C           3.4022    0.9881    0.0000 C.ar    1  UNL1       -0.0190
     19 C           3.4597   -2.0773    0.0000 C.2     1  UNL1       -0.0807
     20 C           9.5323    1.4672    0.0000 C.ar    1  UNL1        0.0216
     21 C           8.6663    2.9672    0.0000 C.ar    1  UNL1       -0.0197
     22 C           9.5323    2.4672    0.0000 C.ar    1  UNL1        0.1203
     23 C           3.4712   -3.0773    0.0000 C.2     1  UNL1       -0.0793
     24 C           2.6110   -3.5872    0.0000 C.3     1  UNL1       -0.0440
     25 C           4.3430   -3.5672    0.0000 C.3     1  UNL1       -0.0440
     26 H           7.4712    0.6572    0.0000 H       1  UNL1        0.0464
     27 H           7.1463   -0.6154    0.0000 H       1  UNL1        0.0707
     28 H           7.5449    0.0749    0.0000 H       1  UNL1        0.0707
     29 H           4.5386   -2.1475    0.0000 H       1  UNL1        0.0358
     30 H           4.9291   -1.4526    0.0000 H       1  UNL1        0.0358
     31 H           4.3154    2.1219    0.0000 H       1  UNL1        0.0627
     32 H           7.2634    2.7772    0.0000 H       1  UNL1        0.0623
     33 H           2.8665    1.3001    0.0000 H       1  UNL1        0.0654
     34 H           2.9192   -1.7736    0.0000 H       1  UNL1        0.0575
     35 H          10.0693    1.1572    0.0000 H       1  UNL1        0.0691
     36 H           8.6663    3.5872    0.0000 H       1  UNL1        0.0654
     37 H           2.0000   -0.2490    0.0000 H       1  UNL1        0.2921
     38 H           9.2033   -0.3428    0.0000 H       1  UNL1        0.2921
     39 H           2.2948   -3.0539    0.0000 H       1  UNL1        0.0274
     40 H           4.0392   -4.1077    0.0000 H       1  UNL1        0.0274
     41 H           4.8835   -3.8710    0.0000 H       1  UNL1        0.0274
     42 H           4.6468   -3.0267    0.0000 H       1  UNL1        0.0274
     43 H           2.0777   -3.9034    0.0000 H       1  UNL1        0.0274
     44 H           2.9272   -4.1206    0.0000 H       1  UNL1        0.0274
     45 H          10.3984    3.5872    0.0000 H       1  UNL1        0.2921
@<TRIPOS>BOND
     1     1     7    1
     2     1    10    1
     3     2     8    2
     4     3    15    1
     5     3    37    1
     6     4    16    1
     7     4    38    1
     8     5    22    1
     9     5    45    1
    10     6     7    1
    11     6     8    1
    12     6    11    1
    13     6    26    1
    14     7    27    1
    15     7    28    1
    16     8     9    1
    17     9    10   ar
    18     9    13   ar
    19    10    12   ar
    20    11    16   ar
    21    11    17   ar
    22    12    14    1
    23    12    15   ar
    24    13    18   ar
    25    13    31    1
    26    14    19    1
    27    14    29    1
    28    14    30    1
    29    15    18   ar
    30    16    20   ar
    31    17    21   ar
    32    17    32    1
    33    18    33    1
    34    19    23    2
    35    19    34    1
    36    20    22   ar
    37    20    35    1
    38    21    22   ar
    39    21    36    1
    40    23    24    1
    41    23    25    1
    42    24    39    1
    43    24    43    1
    44    24    44    1
    45    25    40    1
    46    25    41    1
    47    25    42    1
