@<TRIPOS>MOLECULE
IMPHY004477
 47 50 0 0 0
SMALL
GASTEIGER

@<TRIPOS>ATOM
      1 O           5.6500    0.2184    0.0000 O.3     1  UNL1       -0.4904
      2 O           3.9061   -2.8578    0.0000 O.3     1  UNL1       -0.4815
      3 O           9.1783   -0.7814    0.0000 O.3     1  UNL1       -0.5064
      4 O          10.9219    2.2119    0.0000 O.3     1  UNL1       -0.4950
      5 C           7.4501    0.2253    0.0000 C.3     1  UNL1        0.0258
      6 C           7.4420   -0.8163    0.0000 C.3     1  UNL1       -0.0141
      7 C           6.5320   -1.3232    0.0000 C.ar    1  UNL1       -0.0042
      8 C           6.5480    0.7461    0.0000 C.3     1  UNL1        0.0968
      9 C           5.6660   -0.8232    0.0000 C.ar    1  UNL1        0.1343
     10 C           4.8000   -1.3232    0.0000 C.ar    1  UNL1        0.0584
     11 C           8.3180    0.7219    0.0000 C.ar    1  UNL1        0.0009
     12 C           3.0000   -2.3440    0.0000 C.3     1  UNL1        0.1235
     13 C           4.8000   -2.3232    0.0000 C.ar    1  UNL1        0.1324
     14 C           6.5320   -2.3232    0.0000 C.ar    1  UNL1       -0.0516
     15 C           3.9061   -0.7885    0.0000 C.2     1  UNL1       -0.0478
     16 C           5.6660   -2.8232    0.0000 C.ar    1  UNL1       -0.0188
     17 C           3.0000   -1.3023    0.0000 C.2     1  UNL1       -0.0408
     18 C           9.1821    0.2186    0.0000 C.ar    1  UNL1        0.1239
     19 C           8.3219    1.7219    0.0000 C.ar    1  UNL1       -0.0513
     20 C           2.0000   -2.3478    0.0000 C.3     1  UNL1       -0.0215
     21 C           2.5033   -3.2119    0.0000 C.3     1  UNL1       -0.0215
     22 C          10.0501    0.7153    0.0000 C.ar    1  UNL1        0.0218
     23 C           9.1898    2.2186    0.0000 C.ar    1  UNL1       -0.0195
     24 C          10.0539    1.7153    0.0000 C.ar    1  UNL1        0.1236
     25 C          10.9257    3.2119    0.0000 C.3     1  UNL1        0.0788
     26 H           7.9852   -0.0878    0.0000 H       1  UNL1        0.0386
     27 H           7.6466   -1.4016    0.0000 H       1  UNL1        0.0321
     28 H           8.0537   -0.7149    0.0000 H       1  UNL1        0.0321
     29 H           6.9453    1.2221    0.0000 H       1  UNL1        0.0703
     30 H           6.1470    1.2190    0.0000 H       1  UNL1        0.0703
     31 H           7.0690   -2.6332    0.0000 H       1  UNL1        0.0623
     32 H           3.9132   -0.1685    0.0000 H       1  UNL1        0.0624
     33 H           5.6660   -3.4432    0.0000 H       1  UNL1        0.0654
     34 H           2.4643   -0.9903    0.0000 H       1  UNL1        0.0611
     35 H           7.7862    2.0340    0.0000 H       1  UNL1        0.0623
     36 H           1.9976   -1.7278    0.0000 H       1  UNL1        0.0271
     37 H           1.3800   -2.3502    0.0000 H       1  UNL1        0.0271
     38 H           2.0024   -2.9678    0.0000 H       1  UNL1        0.0271
     39 H           1.9652   -2.9040    0.0000 H       1  UNL1        0.0271
     40 H           2.1954   -3.7500    0.0000 H       1  UNL1        0.0271
     41 H           3.0415   -3.5198    0.0000 H       1  UNL1        0.0271
     42 H          10.5858    0.4032    0.0000 H       1  UNL1        0.0691
     43 H           9.1922    2.8386    0.0000 H       1  UNL1        0.0654
     44 H           9.7140   -1.0934    0.0000 H       1  UNL1        0.2921
     45 H          11.5457    3.2095    0.0000 H       1  UNL1        0.0660
     46 H          10.9281    3.8319    0.0000 H       1  UNL1        0.0660
     47 H          10.3057    3.2143    0.0000 H       1  UNL1        0.0660
@<TRIPOS>BOND
     1     1     8    1
     2     1     9    1
     3     2    12    1
     4     2    13    1
     5     3    18    1
     6     3    44    1
     7     4    24    1
     8     4    25    1
     9     5     6    1
    10     5     8    1
    11     5    11    1
    12     5    26    1
    13     6     7    1
    14     6    27    1
    15     6    28    1
    16     7     9   ar
    17     7    14   ar
    18     8    29    1
    19     8    30    1
    20     9    10   ar
    21    10    13   ar
    22    10    15    1
    23    11    18   ar
    24    11    19   ar
    25    12    17    1
    26    12    20    1
    27    12    21    1
    28    13    16   ar
    29    14    16   ar
    30    14    31    1
    31    15    17    2
    32    15    32    1
    33    16    33    1
    34    17    34    1
    35    18    22   ar
    36    19    23   ar
    37    19    35    1
    38    20    36    1
    39    20    37    1
    40    20    38    1
    41    21    39    1
    42    21    40    1
    43    21    41    1
    44    22    24   ar
    45    22    42    1
    46    23    24   ar
    47    23    43    1
    48    25    45    1
    49    25    46    1
    50    25    47    1
