@<TRIPOS>MOLECULE
IMPHY007730
 41 46 0 0 0
SMALL
GASTEIGER

@<TRIPOS>ATOM
      1 O          10.0580    2.3747    0.0000 O.3     1  UNL1       -0.4526
      2 O           3.3898   -3.0718    0.0000 O.3     1  UNL1       -0.4526
      3 O          10.6588    0.8096    0.0000 O.3     1  UNL1       -0.4526
      4 O           2.0000   -2.1343    0.0000 O.3     1  UNL1       -0.4526
      5 N           5.4104    2.2410    0.0000 N.3     1  UNL1       -0.2909
      6 C           6.1470    1.2584    0.0000 C.3     1  UNL1        0.0403
      7 C           5.8882    0.2924    0.0000 C.3     1  UNL1        0.0403
      8 C           7.1598   -0.5022    0.0000 C.3     1  UNL1       -0.0074
      9 C           4.1137    0.9472    0.0000 C.3     1  UNL1       -0.0074
     10 C           4.6672   -0.5732    0.0000 C.ar    1  UNL1       -0.0230
     11 C           7.5786    1.0607    0.0000 C.ar    1  UNL1       -0.0230
     12 C           7.9370    0.1271    0.0000 C.ar    1  UNL1       -0.0372
     13 C           3.8381   -0.0140    0.0000 C.ar    1  UNL1       -0.0372
     14 C           4.9104    3.1070    0.0000 C.3     1  UNL1       -0.0116
     15 C           8.2216    1.8802    0.0000 C.ar    1  UNL1       -0.0112
     16 C           4.6105   -1.6133    0.0000 C.ar    1  UNL1       -0.0112
     17 C           8.9632   -0.0517    0.0000 C.ar    1  UNL1       -0.0126
     18 C           2.8950   -0.4562    0.0000 C.ar    1  UNL1       -0.0126
     19 C           3.6778   -2.0772    0.0000 C.ar    1  UNL1        0.1666
     20 C           9.2516    1.7252    0.0000 C.ar    1  UNL1        0.1666
     21 C           2.8143   -1.4947    0.0000 C.ar    1  UNL1        0.1665
     22 C           9.6249    0.7527    0.0000 C.ar    1  UNL1        0.1665
     23 C           2.3550   -3.1070    0.0000 C.3     1  UNL1        0.2332
     24 C          10.9259    1.8100    0.0000 C.3     1  UNL1        0.2332
     25 H           6.3905    0.6559    0.0000 H       1  UNL1        0.0516
     26 H           6.1515    0.6384    0.0000 H       1  UNL1        0.0516
     27 H           4.1087    1.5672    0.0000 H       1  UNL1        0.0332
     28 H           3.4994    1.0310    0.0000 H       1  UNL1        0.0332
     29 H           6.7753   -0.9885    0.0000 H       1  UNL1        0.0332
     30 H           7.6008   -0.9381    0.0000 H       1  UNL1        0.0332
     31 H           5.4473    3.4170    0.0000 H       1  UNL1        0.0391
     32 H           4.6004    3.6439    0.0000 H       1  UNL1        0.0391
     33 H           4.3734    2.7970    0.0000 H       1  UNL1        0.0391
     34 H           5.1285   -1.9540    0.0000 H       1  UNL1        0.0659
     35 H           7.9927    2.4564    0.0000 H       1  UNL1        0.0659
     36 H           2.3850   -0.1036    0.0000 H       1  UNL1        0.0658
     37 H           9.1786   -0.6330    0.0000 H       1  UNL1        0.0658
     38 H           1.7534   -3.2572    0.0000 H       1  UNL1        0.1166
     39 H           2.4411   -3.7210    0.0000 H       1  UNL1        0.1166
     40 H          11.5048    1.5880    0.0000 H       1  UNL1        0.1166
     41 H          11.2076    2.3624    0.0000 H       1  UNL1        0.1166
@<TRIPOS>BOND
     1     1    20    1
     2     1    24    1
     3     2    19    1
     4     2    23    1
     5     3    22    1
     6     3    24    1
     7     4    21    1
     8     4    23    1
     9     5     6    1
    10     5     7    1
    11     5    14    1
    12     6     9    1
    13     6    11    1
    14     6    26    1
    15     7     8    1
    16     7    10    1
    17     7    25    1
    18     8    12    1
    19     8    29    1
    20     8    30    1
    21     9    13    1
    22     9    27    1
    23     9    28    1
    24    10    13   ar
    25    10    16   ar
    26    11    12   ar
    27    11    15   ar
    28    12    17   ar
    29    13    18   ar
    30    14    31    1
    31    14    32    1
    32    14    33    1
    33    15    20   ar
    34    15    35    1
    35    16    19   ar
    36    16    34    1
    37    17    22   ar
    38    17    37    1
    39    18    21   ar
    40    18    36    1
    41    19    21   ar
    42    20    22   ar
    43    23    38    1
    44    23    39    1
    45    24    40    1
    46    24    41    1
