@<TRIPOS>MOLECULE
IMPHY009934
 49 50 0 0 0
SMALL
GASTEIGER

@<TRIPOS>ATOM
      1 O           6.1198    0.8264    0.0000 O.3     1  UNL1       -0.5060
      2 O           2.5369    1.5000    0.0000 O.3     1  UNL1       -0.5060
      3 C           3.4030   -2.0000    0.0000 C.3     1  UNL1       -0.0491
      4 C           4.2690   -1.5000    0.0000 C.3     1  UNL1       -0.0275
      5 C           3.4030   -3.0000    0.0000 C.3     1  UNL1       -0.0530
      6 C           4.2690   -0.5000    0.0000 C.ar    1  UNL1       -0.0404
      7 C           4.2690    1.5000    0.0000 C.ar    1  UNL1        0.0655
      8 C           2.5369   -3.5000    0.0000 C.3     1  UNL1       -0.0559
      9 C           4.2690    2.5000    0.0000 C.ar    1  UNL1       -0.0033
     10 C           5.1350    0.0000    0.0000 C.ar    1  UNL1       -0.0162
     11 C           3.4030    0.0000    0.0000 C.ar    1  UNL1       -0.0162
     12 C           5.1350    1.0000    0.0000 C.ar    1  UNL1        0.1283
     13 C           3.4030    1.0000    0.0000 C.ar    1  UNL1        0.1283
     14 C           5.1350    3.0000    0.0000 C.ar    1  UNL1       -0.0147
     15 C           3.4030    3.0000    0.0000 C.ar    1  UNL1       -0.0503
     16 C           2.5369   -4.5000    0.0000 C.3     1  UNL1       -0.0653
     17 C           3.4030    4.0000    0.0000 C.ar    1  UNL1       -0.0498
     18 C           5.1350    4.0000    0.0000 C.ar    1  UNL1       -0.0535
     19 C           6.1198    3.1736    0.0000 C.2     1  UNL1       -0.0498
     20 C           4.2690    4.5000    0.0000 C.ar    1  UNL1       -0.0582
     21 C           2.5369    4.5000    0.0000 C.3     1  UNL1       -0.0397
     22 C           6.4618    4.1133    0.0000 C.3     1  UNL1       -0.0397
     23 C           6.7626    2.4076    0.0000 C.2     1  UNL1       -0.0952
     24 H           3.1909   -1.4174    0.0000 H       1  UNL1        0.0268
     25 H           2.7924   -2.1077    0.0000 H       1  UNL1        0.0268
     26 H           4.4810   -2.0826    0.0000 H       1  UNL1        0.0313
     27 H           4.8796   -1.3923    0.0000 H       1  UNL1        0.0313
     28 H           3.6150   -3.5826    0.0000 H       1  UNL1        0.0265
     29 H           4.0135   -2.8923    0.0000 H       1  UNL1        0.0265
     30 H           2.3249   -2.9174    0.0000 H       1  UNL1        0.0263
     31 H           1.9264   -3.6077    0.0000 H       1  UNL1        0.0263
     32 H           5.6720   -0.3100    0.0000 H       1  UNL1        0.0657
     33 H           2.8660   -0.3100    0.0000 H       1  UNL1        0.0657
     34 H           2.8660    2.6900    0.0000 H       1  UNL1        0.0626
     35 H           1.9169   -4.5000    0.0000 H       1  UNL1        0.0230
     36 H           2.5369   -5.1200    0.0000 H       1  UNL1        0.0230
     37 H           3.1569   -4.5000    0.0000 H       1  UNL1        0.0230
     38 H           5.6720    4.3100    0.0000 H       1  UNL1        0.0624
     39 H           4.2690    5.1200    0.0000 H       1  UNL1        0.0620
     40 H           2.8469    5.0369    0.0000 H       1  UNL1        0.0278
     41 H           2.0000    4.8100    0.0000 H       1  UNL1        0.0278
     42 H           2.2269    3.9631    0.0000 H       1  UNL1        0.0278
     43 H           6.3319    0.2437    0.0000 H       1  UNL1        0.2922
     44 H           2.0000    1.1900    0.0000 H       1  UNL1        0.2922
     45 H           7.0444    3.9013    0.0000 H       1  UNL1        0.0278
     46 H           6.6739    4.6960    0.0000 H       1  UNL1        0.0278
     47 H           5.8792    4.3254    0.0000 H       1  UNL1        0.0278
     48 H           6.5506    1.8250    0.0000 H       1  UNL1        0.0538
     49 H           7.3732    2.5153    0.0000 H       1  UNL1        0.0538
@<TRIPOS>BOND
     1     1    12    1
     2     1    43    1
     3     2    13    1
     4     2    44    1
     5     3     4    1
     6     3     5    1
     7     3    24    1
     8     3    25    1
     9     4     6    1
    10     4    26    1
    11     4    27    1
    12     5     8    1
    13     5    28    1
    14     5    29    1
    15     6    10   ar
    16     6    11   ar
    17     7     9    1
    18     7    12   ar
    19     7    13   ar
    20     8    16    1
    21     8    30    1
    22     8    31    1
    23     9    14   ar
    24     9    15   ar
    25    10    12   ar
    26    10    32    1
    27    11    13   ar
    28    11    33    1
    29    14    18   ar
    30    14    19    1
    31    15    17   ar
    32    15    34    1
    33    16    35    1
    34    16    36    1
    35    16    37    1
    36    17    20   ar
    37    17    21    1
    38    18    20   ar
    39    18    38    1
    40    19    22    1
    41    19    23    2
    42    20    39    1
    43    21    40    1
    44    21    41    1
    45    21    42    1
    46    22    45    1
    47    22    46    1
    48    22    47    1
    49    23    48    1
    50    23    49    1
