@<TRIPOS>MOLECULE
IMPHY011535
 99 104 0 0 0
SMALL
GASTEIGER

@<TRIPOS>ATOM
      1 O           8.5849   -0.5658    0.0000 O.3     1  UNL1       -0.4556
      2 O           8.5688   -2.6574    0.0000 O.3     1  UNL1       -0.3876
      3 O          17.4939    0.4291    0.0000 O.3     1  UNL1       -0.4802
      4 O          16.6394   -1.0775    0.0000 O.2     1  UNL1       -0.2504
      5 O           7.7016   -2.0557    0.0000 O.2     1  UNL1       -0.2456
      6 O           2.5405    1.0042    0.0000 O.3     1  UNL1       -0.5068
      7 C          13.0958   -1.1050    0.0000 C.3     1  UNL1       -0.0194
      8 C          12.2298   -0.6051    0.0000 C.3     1  UNL1       -0.0256
      9 C          11.3198   -1.1119    0.0000 C.3     1  UNL1       -0.0216
     10 C          13.9619   -0.6051    0.0000 C.3     1  UNL1       -0.0051
     11 C          11.3118   -2.1535    0.0000 C.3     1  UNL1       -0.0276
     12 C          13.1119   -2.1466    0.0000 C.3     1  UNL1       -0.0463
     13 C          13.9619    0.3949    0.0000 C.2     1  UNL1       -0.0626
     14 C          12.2139   -2.6743    0.0000 C.3     1  UNL1       -0.0486
     15 C          10.3764   -2.7032    0.0000 C.3     1  UNL1       -0.0021
     16 C          14.8558    0.9296    0.0000 C.3     1  UNL1       -0.0008
     17 C          12.2298    0.3949    0.0000 C.3     1  UNL1       -0.0306
     18 C          10.3930   -0.5478    0.0000 C.3     1  UNL1       -0.0072
     19 C          14.8558   -1.1397    0.0000 C.3     1  UNL1       -0.0424
     20 C          15.7619    0.4158    0.0000 C.3     1  UNL1        0.0743
     21 C          13.7386   -1.8711    0.0000 C.3     1  UNL1       -0.0585
     22 C          15.7619   -0.6259    0.0000 C.3     1  UNL1       -0.0359
     23 C           9.4367   -2.1607    0.0000 C.3     1  UNL1        0.0974
     24 C           9.4451   -1.0758    0.0000 C.3     1  UNL1        0.1301
     25 C          13.0958    0.8949    0.0000 C.2     1  UNL1       -0.0836
     26 C          11.3275   -0.1119    0.0000 C.3     1  UNL1       -0.0589
     27 C          14.3040   -1.5447    0.0000 C.3     1  UNL1       -0.0553
     28 C          14.8307    2.0143    0.0000 C.3     1  UNL1       -0.0337
     29 C          16.7057    0.9510    0.0000 C.3     1  UNL1       -0.0364
     30 C          15.7619    2.5712    0.0000 C.3     1  UNL1       -0.0407
     31 C           9.8797   -3.5712    0.0000 C.3     1  UNL1       -0.0571
     32 C          10.8797   -3.5673    0.0000 C.3     1  UNL1       -0.0571
     33 C          16.7057    2.0360    0.0000 C.3     1  UNL1       -0.0492
     34 C          16.6317   -0.0775    0.0000 C.2     1  UNL1        0.3115
     35 C          13.9552    2.4975    0.0000 C.3     1  UNL1       -0.0616
     36 C          15.7503    3.5712    0.0000 C.3     1  UNL1       -0.0622
     37 C           7.7132   -1.0557    0.0000 C.2     1  UNL1        0.3323
     38 C           6.8530   -0.5458    0.0000 C.2     1  UNL1        0.0231
     39 C           5.9812   -1.0357    0.0000 C.2     1  UNL1       -0.0478
     40 C           5.1210   -0.5257    0.0000 C.ar    1  UNL1       -0.0246
     41 C           5.1326    0.4742    0.0000 C.ar    1  UNL1       -0.0511
     42 C           4.2493   -1.0157    0.0000 C.ar    1  UNL1       -0.0511
     43 C           4.2724    0.9842    0.0000 C.ar    1  UNL1       -0.0196
     44 C           3.3891   -0.5057    0.0000 C.ar    1  UNL1       -0.0196
     45 C           3.4007    0.4942    0.0000 C.ar    1  UNL1        0.1169
     46 H          12.9659   -0.1801    0.0000 H       1  UNL1        0.0315
     47 H          11.3151   -3.0035    0.0000 H       1  UNL1        0.0312
     48 H          13.3299   -2.7270    0.0000 H       1  UNL1        0.0271
     49 H          13.7211   -2.0311    0.0000 H       1  UNL1        0.0271
     50 H          11.8166   -3.1503    0.0000 H       1  UNL1        0.0268
     51 H          12.6148   -3.1472    0.0000 H       1  UNL1        0.0268
     52 H          14.1116    1.3404    0.0000 H       1  UNL1        0.0359
     53 H          12.0178    0.9776    0.0000 H       1  UNL1        0.0310
     54 H          11.6192    0.2873    0.0000 H       1  UNL1        0.0310
     55 H          10.8012   -0.0812    0.0000 H       1  UNL1        0.0307
     56 H          10.0031   -0.0658    0.0000 H       1  UNL1        0.0307
     57 H          14.4512   -1.6095    0.0000 H       1  UNL1        0.0274
     58 H          15.2494   -1.6187    0.0000 H       1  UNL1        0.0274
     59 H          13.2637   -2.2696    0.0000 H       1  UNL1        0.0235
     60 H          14.1372   -2.3460    0.0000 H       1  UNL1        0.0235
     61 H          14.2136   -1.4726    0.0000 H       1  UNL1        0.0235
     62 H          15.9709   -1.2096    0.0000 H       1  UNL1        0.0276
     63 H          16.3727   -0.5198    0.0000 H       1  UNL1        0.0276
     64 H           9.4355   -2.7807    0.0000 H       1  UNL1        0.0636
     65 H           8.9052   -1.3806    0.0000 H       1  UNL1        0.0760
     66 H          13.0958    1.5150    0.0000 H       1  UNL1        0.0572
     67 H          11.9475   -0.1167    0.0000 H       1  UNL1        0.0235
     68 H          11.3323    0.5081    0.0000 H       1  UNL1        0.0235
     69 H          10.7075   -0.1071    0.0000 H       1  UNL1        0.0235
     70 H          13.7214   -1.7568    0.0000 H       1  UNL1        0.0238
     71 H          14.5161   -2.1273    0.0000 H       1  UNL1        0.0238
     72 H          14.8866   -1.3326    0.0000 H       1  UNL1        0.0238
     73 H          14.3005    1.6930    0.0000 H       1  UNL1        0.0307
     74 H          16.9147    0.3673    0.0000 H       1  UNL1        0.0276
     75 H          17.3165    1.0571    0.0000 H       1  UNL1        0.0276
     76 H          16.2958    2.8864    0.0000 H       1  UNL1        0.0301
     77 H           9.3416   -3.2632    0.0000 H       1  UNL1        0.0236
     78 H           9.5718   -4.1093    0.0000 H       1  UNL1        0.0236
     79 H          10.4178   -3.8791    0.0000 H       1  UNL1        0.0236
     80 H          10.3440   -3.8794    0.0000 H       1  UNL1        0.0236
     81 H          11.1918   -4.1030    0.0000 H       1  UNL1        0.0236
     82 H          11.4154   -3.2553    0.0000 H       1  UNL1        0.0236
     83 H          17.3165    1.9299    0.0000 H       1  UNL1        0.0268
     84 H          16.9147    2.6197    0.0000 H       1  UNL1        0.0268
     85 H          14.2548    3.0403    0.0000 H       1  UNL1        0.0233
     86 H          13.4124    2.7971    0.0000 H       1  UNL1        0.0233
     87 H          13.6556    1.9547    0.0000 H       1  UNL1        0.0233
     88 H           8.5664   -3.2774    0.0000 H       1  UNL1        0.2100
     89 H          16.3703    3.5783    0.0000 H       1  UNL1        0.0233
     90 H          15.7431    4.1911    0.0000 H       1  UNL1        0.0233
     91 H          15.1304    3.5640    0.0000 H       1  UNL1        0.0233
     92 H          18.0332    0.1233    0.0000 H       1  UNL1        0.2951
     93 H           6.8602    0.0742    0.0000 H       1  UNL1        0.0689
     94 H           5.9741   -1.6557    0.0000 H       1  UNL1        0.0626
     95 H           5.6731    0.7780    0.0000 H       1  UNL1        0.0625
     96 H           4.2421   -1.6356    0.0000 H       1  UNL1        0.0625
     97 H           4.2796    1.6042    0.0000 H       1  UNL1        0.0654
     98 H           2.8486   -0.8095    0.0000 H       1  UNL1        0.0654
     99 H           2.0000    0.7004    0.0000 H       1  UNL1        0.2921
@<TRIPOS>BOND
     1    24     1    1
     2     1    37    1
     3    23     2    1
     4     2    88    1
     5     3    34    1
     6     3    92    1
     7     4    34    2
     8     5    37    2
     9     6    45    1
    10     6    99    1
    11     7     8    1
    12     7    10    1
    13     7    12    1
    14     7    21    1
    15     8     9    1
    16     8    17    1
    17     8    46    1
    18     9    11    1
    19     9    18    1
    20     9    26    1
    21    10    13    1
    22    10    19    1
    23    10    27    1
    24    11    14    1
    25    11    15    1
    26    11    47    1
    27    12    14    1
    28    12    48    1
    29    12    49    1
    30    13    16    1
    31    13    25    2
    32    14    50    1
    33    14    51    1
    34    15    23    1
    35    15    31    1
    36    15    32    1
    37    16    20    1
    38    16    28    1
    39    16    52    1
    40    17    25    1
    41    17    53    1
    42    17    54    1
    43    18    24    1
    44    18    55    1
    45    18    56    1
    46    19    22    1
    47    19    57    1
    48    19    58    1
    49    20    22    1
    50    20    29    1
    51    20    34    1
    52    21    59    1
    53    21    60    1
    54    21    61    1
    55    22    62    1
    56    22    63    1
    57    23    24    1
    58    23    64    1
    59    24    65    1
    60    25    66    1
    61    26    67    1
    62    26    68    1
    63    26    69    1
    64    27    70    1
    65    27    71    1
    66    27    72    1
    67    28    30    1
    68    28    35    1
    69    28    73    1
    70    29    33    1
    71    29    74    1
    72    29    75    1
    73    30    33    1
    74    30    36    1
    75    30    76    1
    76    31    77    1
    77    31    78    1
    78    31    79    1
    79    32    80    1
    80    32    81    1
    81    32    82    1
    82    33    83    1
    83    33    84    1
    84    35    85    1
    85    35    86    1
    86    35    87    1
    87    36    89    1
    88    36    90    1
    89    36    91    1
    90    37    38    1
    91    38    39    2
    92    38    93    1
    93    39    40    1
    94    39    94    1
    95    40    41   ar
    96    40    42   ar
    97    41    43   ar
    98    41    95    1
    99    42    44   ar
   100    42    96    1
   101    43    45   ar
   102    43    97    1
   103    44    45   ar
   104    44    98    1
