@<TRIPOS>MOLECULE
IMPHY004627
 72 71 0 0 0
SMALL
GASTEIGER

@<TRIPOS>ATOM
      1 O           2.5369   -2.2500    0.0000 O.3     1  UNL1       -0.4806
      2 O           3.4030   -3.7500    0.0000 O.2     1  UNL1       -0.2510
      3 C           9.4651   -2.2500    0.0000 C.3     1  UNL1       -0.0531
      4 C          10.3312   -2.7500    0.0000 C.3     1  UNL1       -0.0531
      5 C           8.5991   -2.7500    0.0000 C.3     1  UNL1       -0.0531
      6 C          11.1972   -2.2500    0.0000 C.3     1  UNL1       -0.0531
      7 C           7.7331   -2.2500    0.0000 C.3     1  UNL1       -0.0531
      8 C          12.0632   -2.7500    0.0000 C.3     1  UNL1       -0.0530
      9 C          12.9292   -2.2500    0.0000 C.3     1  UNL1       -0.0528
     10 C           6.8671   -2.7500    0.0000 C.3     1  UNL1       -0.0530
     11 C          13.7953   -2.7500    0.0000 C.3     1  UNL1       -0.0496
     12 C           6.0010   -2.2500    0.0000 C.3     1  UNL1       -0.0526
     13 C          14.6613   -2.2500    0.0000 C.3     1  UNL1       -0.0348
     14 C          17.2594    0.2500    0.0000 C.3     1  UNL1       -0.0528
     15 C          18.1254    0.7500    0.0000 C.3     1  UNL1       -0.0530
     16 C           5.1350   -2.7500    0.0000 C.3     1  UNL1       -0.0430
     17 C          17.2594   -0.7500    0.0000 C.3     1  UNL1       -0.0496
     18 C          18.1254    1.7500    0.0000 C.3     1  UNL1       -0.0531
     19 C          16.3933   -1.2500    0.0000 C.3     1  UNL1       -0.0348
     20 C          18.9914    2.2500    0.0000 C.3     1  UNL1       -0.0533
     21 C          15.5273   -2.7500    0.0000 C.2     1  UNL1       -0.0879
     22 C           4.2690   -2.2500    0.0000 C.3     1  UNL1        0.0448
     23 C          16.3933   -2.2500    0.0000 C.2     1  UNL1       -0.0879
     24 C          18.9914    3.2500    0.0000 C.3     1  UNL1       -0.0559
     25 C          19.8574    3.7500    0.0000 C.3     1  UNL1       -0.0653
     26 C           3.4030   -2.7500    0.0000 C.2     1  UNL1        0.3047
     27 H           9.8637   -1.7750    0.0000 H       1  UNL1        0.0265
     28 H           9.0666   -1.7750    0.0000 H       1  UNL1        0.0265
     29 H           9.9326   -3.2250    0.0000 H       1  UNL1        0.0265
     30 H          10.7297   -3.2250    0.0000 H       1  UNL1        0.0265
     31 H           8.2006   -3.2250    0.0000 H       1  UNL1        0.0265
     32 H           8.9976   -3.2250    0.0000 H       1  UNL1        0.0265
     33 H          11.5957   -1.7750    0.0000 H       1  UNL1        0.0265
     34 H          10.7987   -1.7750    0.0000 H       1  UNL1        0.0265
     35 H           8.1316   -1.7750    0.0000 H       1  UNL1        0.0265
     36 H           7.3346   -1.7750    0.0000 H       1  UNL1        0.0265
     37 H          11.6647   -3.2250    0.0000 H       1  UNL1        0.0265
     38 H          12.4617   -3.2250    0.0000 H       1  UNL1        0.0265
     39 H          13.3278   -1.7750    0.0000 H       1  UNL1        0.0265
     40 H          12.5307   -1.7750    0.0000 H       1  UNL1        0.0265
     41 H           6.4685   -3.2250    0.0000 H       1  UNL1        0.0265
     42 H           7.2656   -3.2250    0.0000 H       1  UNL1        0.0265
     43 H          13.3967   -3.2250    0.0000 H       1  UNL1        0.0268
     44 H          14.1938   -3.2250    0.0000 H       1  UNL1        0.0268
     45 H           6.3996   -1.7750    0.0000 H       1  UNL1        0.0265
     46 H           5.6025   -1.7750    0.0000 H       1  UNL1        0.0265
     47 H          17.0473    0.8326    0.0000 H       1  UNL1        0.0265
     48 H          16.6488    0.1423    0.0000 H       1  UNL1        0.0265
     49 H          18.3374    0.1674    0.0000 H       1  UNL1        0.0265
     50 H          18.7360    0.8577    0.0000 H       1  UNL1        0.0265
     51 H          15.0598   -1.7750    0.0000 H       1  UNL1        0.0307
     52 H          14.2628   -1.7750    0.0000 H       1  UNL1        0.0307
     53 H           4.7365   -3.2250    0.0000 H       1  UNL1        0.0270
     54 H           5.5335   -3.2250    0.0000 H       1  UNL1        0.0270
     55 H          17.4714   -1.3326    0.0000 H       1  UNL1        0.0268
     56 H          17.8699   -0.6423    0.0000 H       1  UNL1        0.0268
     57 H          17.9133    2.3326    0.0000 H       1  UNL1        0.0265
     58 H          17.5148    1.6423    0.0000 H       1  UNL1        0.0265
     59 H          16.1813   -0.6674    0.0000 H       1  UNL1        0.0307
     60 H          15.7828   -1.3577    0.0000 H       1  UNL1        0.0307
     61 H          19.2035    1.6674    0.0000 H       1  UNL1        0.0265
     62 H          19.6020    2.3577    0.0000 H       1  UNL1        0.0265
     63 H          15.5273   -3.3700    0.0000 H       1  UNL1        0.0569
     64 H           4.6675   -1.7750    0.0000 H       1  UNL1        0.0377
     65 H           3.8705   -1.7750    0.0000 H       1  UNL1        0.0377
     66 H          16.9303   -2.5600    0.0000 H       1  UNL1        0.0569
     67 H          18.7794    3.8326    0.0000 H       1  UNL1        0.0263
     68 H          18.3808    3.1423    0.0000 H       1  UNL1        0.0263
     69 H          20.1674    3.2131    0.0000 H       1  UNL1        0.0230
     70 H          20.3944    4.0600    0.0000 H       1  UNL1        0.0230
     71 H          19.5474    4.2869    0.0000 H       1  UNL1        0.0230
     72 H           2.0000   -2.5600    0.0000 H       1  UNL1        0.2951
@<TRIPOS>BOND
     1     1    26    1
     2     1    72    1
     3     2    26    2
     4     3     4    1
     5     3     5    1
     6     3    27    1
     7     3    28    1
     8     4     6    1
     9     4    29    1
    10     4    30    1
    11     5     7    1
    12     5    31    1
    13     5    32    1
    14     6     8    1
    15     6    33    1
    16     6    34    1
    17     7    10    1
    18     7    35    1
    19     7    36    1
    20     8     9    1
    21     8    37    1
    22     8    38    1
    23     9    11    1
    24     9    39    1
    25     9    40    1
    26    10    12    1
    27    10    41    1
    28    10    42    1
    29    11    13    1
    30    11    43    1
    31    11    44    1
    32    12    16    1
    33    12    45    1
    34    12    46    1
    35    13    21    1
    36    13    51    1
    37    13    52    1
    38    14    15    1
    39    14    17    1
    40    14    47    1
    41    14    48    1
    42    15    18    1
    43    15    49    1
    44    15    50    1
    45    16    22    1
    46    16    53    1
    47    16    54    1
    48    17    19    1
    49    17    55    1
    50    17    56    1
    51    18    20    1
    52    18    57    1
    53    18    58    1
    54    19    23    1
    55    19    59    1
    56    19    60    1
    57    20    24    1
    58    20    61    1
    59    20    62    1
    60    21    23    2
    61    21    63    1
    62    22    26    1
    63    22    64    1
    64    22    65    1
    65    23    66    1
    66    24    25    1
    67    24    67    1
    68    24    68    1
    69    25    69    1
    70    25    70    1
    71    25    71    1
