@<TRIPOS>MOLECULE
IMPHY013913
 74 78 0 0 0
SMALL
GASTEIGER

@<TRIPOS>ATOM
      1 O           7.4149   -2.3197    0.0000 O.3     1  UNL1       -0.4580
      2 O           5.6489   -3.3575    0.0000 O.3     1  UNL1       -0.3758
      3 O           2.0000   -2.3405    0.0000 O.2     1  UNL1       -0.2921
      4 O           8.6528    3.5851    0.0000 O.3     1  UNL1       -0.4282
      5 O           7.0636    2.7788    0.0000 O.3     1  UNL1       -0.3543
      6 O           6.5662   -3.8296    0.0000 O.2     1  UNL1       -0.2512
      7 O          10.4133    3.8608    0.0000 O.2     1  UNL1       -0.2455
      8 C           6.5271   -0.7882    0.0000 C.3     1  UNL1        0.0325
      9 C           5.6610   -0.2882    0.0000 C.3     1  UNL1       -0.0192
     10 C           4.7510   -0.7951    0.0000 C.3     1  UNL1       -0.0038
     11 C           4.7430   -1.8366    0.0000 C.3     1  UNL1        0.0100
     12 C           7.3931    0.7118    0.0000 C.3     1  UNL1       -0.0034
     13 C           6.5431   -1.8297    0.0000 C.3     1  UNL1        0.1385
     14 C           7.3931   -0.2882    0.0000 C.2     1  UNL1       -0.0572
     15 C           5.6451   -2.3575    0.0000 C.3     1  UNL1        0.1004
     16 C           5.6610    0.7118    0.0000 C.3     1  UNL1       -0.0477
     17 C           6.5271    1.2118    0.0000 C.3     1  UNL1       -0.0430
     18 C           3.8076   -2.3864    0.0000 C.3     1  UNL1        0.0334
     19 C           8.3393    1.0165    0.0000 C.3     1  UNL1       -0.0011
     20 C           7.3931   -1.2882    0.0000 C.3     1  UNL1       -0.0521
     21 C           4.7587    0.2049    0.0000 C.3     1  UNL1       -0.0554
     22 C           3.8242   -0.2310    0.0000 C.2     1  UNL1       -0.0741
     23 C           8.3393   -0.5929    0.0000 C.2     1  UNL1       -0.0830
     24 C           8.9229    0.2118    0.0000 C.3     1  UNL1       -0.0269
     25 C           7.3931    1.7118    0.0000 C.3     1  UNL1       -0.0553
     26 C           2.8680   -1.8439    0.0000 C.2     1  UNL1        0.1618
     27 C           8.6500    1.9670    0.0000 C.2     1  UNL1        0.0086
     28 C           2.8763   -0.7589    0.0000 C.2     1  UNL1       -0.0220
     29 C           3.3109   -3.2543    0.0000 C.3     1  UNL1       -0.0524
     30 C           4.3109   -3.2505    0.0000 C.3     1  UNL1       -0.0524
     31 C           8.0636    2.7771    0.0000 C.3     1  UNL1        0.2262
     32 C           9.6016    2.2744    0.0000 C.2     1  UNL1        0.0280
     33 C           4.7848   -3.8608    0.0000 C.3     1  UNL1        0.0370
     34 C           7.4264   -3.3196    0.0000 C.2     1  UNL1        0.3043
     35 C           9.6033    3.2744    0.0000 C.2     1  UNL1        0.3345
     36 C           8.2982   -3.8096    0.0000 C.3     1  UNL1        0.0332
     37 H           6.1980    0.0218    0.0000 H       1  UNL1        0.0319
     38 H           4.7454   -2.4566    0.0000 H       1  UNL1        0.0345
     39 H           6.5491   -2.4497    0.0000 H       1  UNL1        0.0769
     40 H           5.1087   -2.6685    0.0000 H       1  UNL1        0.0636
     41 H           5.4490    1.2944    0.0000 H       1  UNL1        0.0269
     42 H           5.0504    0.6041    0.0000 H       1  UNL1        0.0269
     43 H           6.9256    1.6867    0.0000 H       1  UNL1        0.0274
     44 H           6.1285    1.6867    0.0000 H       1  UNL1        0.0274
     45 H           8.9518    1.1127    0.0000 H       1  UNL1        0.0359
     46 H           7.0831   -1.8251    0.0000 H       1  UNL1        0.0239
     47 H           7.9300   -1.5982    0.0000 H       1  UNL1        0.0239
     48 H           7.7031   -0.7513    0.0000 H       1  UNL1        0.0239
     49 H           5.3787    0.2001    0.0000 H       1  UNL1        0.0238
     50 H           4.7635    0.8249    0.0000 H       1  UNL1        0.0238
     51 H           4.1388    0.2097    0.0000 H       1  UNL1        0.0238
     52 H           3.8361    0.3889    0.0000 H       1  UNL1        0.0579
     53 H           8.5319   -1.1823    0.0000 H       1  UNL1        0.0572
     54 H           9.3838   -0.2029    0.0000 H       1  UNL1        0.0313
     55 H           9.3838    0.6265    0.0000 H       1  UNL1        0.0313
     56 H           8.0131    1.7118    0.0000 H       1  UNL1        0.0238
     57 H           7.3931    2.3318    0.0000 H       1  UNL1        0.0238
     58 H           6.7731    1.7118    0.0000 H       1  UNL1        0.0238
     59 H           2.3430   -0.4427    0.0000 H       1  UNL1        0.0649
     60 H           2.7728   -2.9464    0.0000 H       1  UNL1        0.0239
     61 H           3.0030   -3.7924    0.0000 H       1  UNL1        0.0239
     62 H           3.8490   -3.5622    0.0000 H       1  UNL1        0.0239
     63 H           3.7752   -3.5625    0.0000 H       1  UNL1        0.0239
     64 H           4.6230   -3.7862    0.0000 H       1  UNL1        0.0239
     65 H           4.8466   -2.9384    0.0000 H       1  UNL1        0.0239
     66 H           7.7831    3.3300    0.0000 H       1  UNL1        0.1108
     67 H          10.1025    1.9091    0.0000 H       1  UNL1        0.0690
     68 H           4.4728   -3.3251    0.0000 H       1  UNL1        0.0524
     69 H           4.2491   -4.1729    0.0000 H       1  UNL1        0.0524
     70 H           5.0969   -4.3965    0.0000 H       1  UNL1        0.0524
     71 H           7.9944   -4.3500    0.0000 H       1  UNL1        0.0342
     72 H           8.8387   -4.1133    0.0000 H       1  UNL1        0.0342
     73 H           8.6020   -3.2691    0.0000 H       1  UNL1        0.0342
     74 H           6.7545    3.3163    0.0000 H       1  UNL1        0.2139
@<TRIPOS>BOND
     1     1    13    1
     2     1    34    1
     3     2    15    1
     4     2    33    1
     5     3    26    2
     6     4    31    1
     7     4    35    1
     8     5    31    1
     9     5    74    1
    10     6    34    2
    11     7    35    2
    12     8     9    1
    13     8    13    1
    14     8    14    1
    15     8    20    1
    16     9    10    1
    17     9    16    1
    18     9    37    1
    19    10    11    1
    20    10    21    1
    21    10    22    1
    22    11    15    1
    23    11    18    1
    24    11    38    1
    25    12    14    1
    26    12    17    1
    27    12    19    1
    28    12    25    1
    29    13    15    1
    30    13    39    1
    31    14    23    2
    32    15    40    1
    33    16    17    1
    34    16    41    1
    35    16    42    1
    36    17    43    1
    37    17    44    1
    38    18    26    1
    39    18    29    1
    40    18    30    1
    41    19    24    1
    42    19    27    1
    43    19    45    1
    44    20    46    1
    45    20    47    1
    46    20    48    1
    47    21    49    1
    48    21    50    1
    49    21    51    1
    50    22    28    2
    51    22    52    1
    52    23    24    1
    53    23    53    1
    54    24    54    1
    55    24    55    1
    56    25    56    1
    57    25    57    1
    58    25    58    1
    59    26    28    1
    60    27    31    1
    61    27    32    2
    62    28    59    1
    63    29    60    1
    64    29    61    1
    65    29    62    1
    66    30    63    1
    67    30    64    1
    68    30    65    1
    69    31    66    1
    70    32    35    1
    71    32    67    1
    72    33    68    1
    73    33    69    1
    74    33    70    1
    75    34    36    1
    76    36    71    1
    77    36    72    1
    78    36    73    1
