@<TRIPOS>MOLECULE
IMPHY012731
 39 40 0 0 0
SMALL
GASTEIGER

@<TRIPOS>ATOM
      1 O           4.3723   -2.4064    0.0000 O.3     1  UNL1       -0.4571
      2 O           2.8495    0.5654    0.0000 O.3     1  UNL1       -0.3870
      3 O           2.8836   -3.3754    0.0000 O.2     1  UNL1       -0.2453
      4 O           3.7155    3.0654    0.0000 O.3     1  UNL1       -0.3907
      5 C           3.7155   -0.9346    0.0000 C.3     1  UNL1        0.0572
      6 C           4.5816   -1.4346    0.0000 C.3     1  UNL1        0.1166
      7 C           3.7155    0.0654    0.0000 C.3     1  UNL1        0.0840
      8 C           5.4476   -0.9346    0.0000 C.3     1  UNL1        0.0060
      9 C           2.9785   -1.6016    0.0000 C.2     1  UNL1        0.0389
     10 C           5.4476    0.0654    0.0000 C.2     1  UNL1       -0.0730
     11 C           4.5816    0.5654    0.0000 C.2     1  UNL1       -0.0538
     12 C           3.3836   -2.5094    0.0000 C.2     1  UNL1        0.3354
     13 C           4.5816    1.5654    0.0000 C.2     1  UNL1       -0.0457
     14 C           5.4476    2.0654    0.0000 C.3     1  UNL1       -0.0261
     15 C           6.3136    1.5654    0.0000 C.3     1  UNL1       -0.0308
     16 C           6.3136    0.5654    0.0000 C.2     1  UNL1       -0.0846
     17 C           2.0000   -1.3954    0.0000 C.2     1  UNL1       -0.0882
     18 C           3.9910    0.5956    0.0000 C.3     1  UNL1       -0.0437
     19 C           3.7155    2.0654    0.0000 C.3     1  UNL1        0.0654
     20 H           2.9386   -0.5898    0.0000 H       1  UNL1        0.0415
     21 H           5.2686   -1.9351    0.0000 H       1  UNL1        0.0744
     22 H           3.7155    0.6854    0.0000 H       1  UNL1        0.0645
     23 H           5.6596   -1.5172    0.0000 H       1  UNL1        0.0346
     24 H           6.0582   -0.8269    0.0000 H       1  UNL1        0.0346
     25 H           5.1921    0.6731    0.0000 H       1  UNL1        0.0598
     26 H           5.8461    2.5404    0.0000 H       1  UNL1        0.0314
     27 H           5.0490    2.5404    0.0000 H       1  UNL1        0.0314
     28 H           6.9242    1.4578    0.0000 H       1  UNL1        0.0310
     29 H           6.5256    2.1481    0.0000 H       1  UNL1        0.0310
     30 H           6.8505    0.2554    0.0000 H       1  UNL1        0.0572
     31 H           1.8074   -0.8061    0.0000 H       1  UNL1        0.0540
     32 H           1.5859   -1.8569    0.0000 H       1  UNL1        0.0540
     33 H           2.3126    0.2554    0.0000 H       1  UNL1        0.2102
     34 H           4.2031    1.1782    0.0000 H       1  UNL1        0.0274
     35 H           3.4084    0.8076    0.0000 H       1  UNL1        0.0274
     36 H           3.7790    0.0130    0.0000 H       1  UNL1        0.0274
     37 H           3.1049    2.1731    0.0000 H       1  UNL1        0.0604
     38 H           3.5035    1.4828    0.0000 H       1  UNL1        0.0604
     39 H           3.1786    3.3754    0.0000 H       1  UNL1        0.2098
@<TRIPOS>BOND
     1     1     6    1
     2     1    12    1
     3     7     2    1
     4     2    33    1
     5     3    12    2
     6     4    19    1
     7     4    39    1
     8     5     6    1
     9     5     7    1
    10     5     9    1
    11     5    20    1
    12     6     8    1
    13     6    21    1
    14     7    11    1
    15     7    22    1
    16     8    10    1
    17     8    23    1
    18     8    24    1
    19     9    12    1
    20     9    17    2
    21    10    16    2
    22    10    18    1
    23    11    13    2
    24    11    25    1
    25    13    14    1
    26    13    19    1
    27    14    15    1
    28    14    26    1
    29    14    27    1
    30    15    16    1
    31    15    28    1
    32    15    29    1
    33    16    30    1
    34    17    31    1
    35    17    32    1
    36    18    34    1
    37    18    35    1
    38    18    36    1
    39    19    37    1
    40    19    38    1
