@<TRIPOS>MOLECULE
IMPHY008187
 46 48 0 0 0
SMALL
GASTEIGER

@<TRIPOS>ATOM
      1 O           5.1350   -0.6296    0.0000 O.3     1  UNL1       -0.3313
      2 O           6.8671   -0.6296    0.0000 O.3     1  UNL1       -0.4605
      3 O           5.1350   -3.6296    0.0000 O.3     1  UNL1       -0.3864
      4 O           3.4030   -2.6296    0.0000 O.3     1  UNL1       -0.3865
      5 O           6.8671   -2.6296    0.0000 O.3     1  UNL1       -0.3829
      6 O           2.5369   -1.1296    0.0000 O.3     1  UNL1       -0.3924
      7 C           5.1350   -2.6296    0.0000 C.3     1  UNL1        0.1152
      8 C           4.2690   -2.1296    0.0000 C.3     1  UNL1        0.1120
      9 C           6.0010   -2.1296    0.0000 C.3     1  UNL1        0.1454
     10 C           4.2690   -1.1296    0.0000 C.3     1  UNL1        0.1140
     11 C           6.0010   -1.1296    0.0000 C.3     1  UNL1        0.2308
     12 C           3.4030   -0.6296    0.0000 C.3     1  UNL1        0.0731
     13 C           6.8671    0.3704    0.0000 C.ar    1  UNL1        0.1275
     14 C           6.0010    0.8704    0.0000 C.ar    1  UNL1       -0.0081
     15 C           7.7331    0.8704    0.0000 C.ar    1  UNL1       -0.0116
     16 C           7.7331    1.8704    0.0000 C.ar    1  UNL1       -0.0115
     17 C           6.8671    2.3704    0.0000 C.ar    1  UNL1       -0.0172
     18 C           6.0010    1.8704    0.0000 C.ar    1  UNL1       -0.0476
     19 C           8.6431    2.3772    0.0000 C.ar    1  UNL1       -0.0426
     20 C           5.1350    0.3704    0.0000 C.3     1  UNL1       -0.0362
     21 C           6.8510    3.4119    0.0000 C.ar    1  UNL1       -0.0540
     22 C           8.6511    3.4188    0.0000 C.ar    1  UNL1       -0.0582
     23 C           7.7490    3.9396    0.0000 C.ar    1  UNL1       -0.0609
     24 C           9.5033    1.8672    0.0000 C.3     1  UNL1       -0.0391
     25 H           5.6720   -2.9396    0.0000 H       1  UNL1        0.0648
     26 H           4.2690   -2.7496    0.0000 H       1  UNL1        0.0647
     27 H           6.5380   -1.8196    0.0000 H       1  UNL1        0.0683
     28 H           4.2690   -0.5096    0.0000 H       1  UNL1        0.0647
     29 H           6.0010   -0.5096    0.0000 H       1  UNL1        0.1084
     30 H           3.8015   -0.1547    0.0000 H       1  UNL1        0.0584
     31 H           3.0044   -0.1547    0.0000 H       1  UNL1        0.0584
     32 H           4.5981   -3.9396    0.0000 H       1  UNL1        0.2100
     33 H           3.4030   -3.2496    0.0000 H       1  UNL1        0.2100
     34 H           6.8671   -3.2496    0.0000 H       1  UNL1        0.2102
     35 H           8.2700    0.5604    0.0000 H       1  UNL1        0.0660
     36 H           2.0000   -0.8196    0.0000 H       1  UNL1        0.2095
     37 H           5.4641    2.1804    0.0000 H       1  UNL1        0.0627
     38 H           4.8250    0.9073    0.0000 H       1  UNL1        0.0279
     39 H           4.5981    0.0604    0.0000 H       1  UNL1        0.0279
     40 H           5.4450   -0.1666    0.0000 H       1  UNL1        0.0279
     41 H           6.3105    3.7156    0.0000 H       1  UNL1        0.0624
     42 H           9.1892    3.7267    0.0000 H       1  UNL1        0.0620
     43 H           7.7466    4.5596    0.0000 H       1  UNL1        0.0618
     44 H           9.1871    1.3339    0.0000 H       1  UNL1        0.0278
     45 H          10.0366    1.5510    0.0000 H       1  UNL1        0.0278
     46 H           9.8195    2.4006    0.0000 H       1  UNL1        0.0278
@<TRIPOS>BOND
     1     1    10    1
     2     1    11    1
     3    11     2    1
     4     2    13    1
     5     7     3    1
     6     3    32    1
     7     8     4    1
     8     4    33    1
     9     9     5    1
    10     5    34    1
    11     6    12    1
    12     6    36    1
    13     7     8    1
    14     7     9    1
    15     7    25    1
    16     8    10    1
    17     8    26    1
    18     9    11    1
    19     9    27    1
    20    10    12    1
    21    10    28    1
    22    11    29    1
    23    12    30    1
    24    12    31    1
    25    13    14   ar
    26    13    15   ar
    27    14    18   ar
    28    14    20    1
    29    15    16   ar
    30    15    35    1
    31    16    17   ar
    32    16    19   ar
    33    17    18   ar
    34    17    21   ar
    35    18    37    1
    36    19    22   ar
    37    19    24    1
    38    20    38    1
    39    20    39    1
    40    20    40    1
    41    21    23   ar
    42    21    41    1
    43    22    23   ar
    44    22    42    1
    45    23    43    1
    46    24    44    1
    47    24    45    1
    48    24    46    1
