@<TRIPOS>MOLECULE
IMPHY012712
 61 60 0 0 0
SMALL
GASTEIGER

@<TRIPOS>ATOM
      1 O           2.5369    0.4400    0.0000 O.3     1  UNL1       -0.3910
      2 C          12.0632   -0.0600    0.0000 C.3     1  UNL1       -0.0439
      3 C          11.1972    0.4400    0.0000 C.3     1  UNL1       -0.0505
      4 C           8.5991   -0.0600    0.0000 C.3     1  UNL1       -0.0439
      5 C          10.3312   -0.0600    0.0000 C.3     1  UNL1       -0.0526
      6 C           9.4651    0.4400    0.0000 C.3     1  UNL1       -0.0505
      7 C          12.9292    0.4400    0.0000 C.3     1  UNL1       -0.0505
      8 C           7.7331    0.4400    0.0000 C.3     1  UNL1       -0.0502
      9 C          13.7953   -0.0600    0.0000 C.3     1  UNL1       -0.0526
     10 C          14.6613    0.4400    0.0000 C.3     1  UNL1       -0.0507
     11 C          12.0632   -1.0600    0.0000 C.3     1  UNL1       -0.0624
     12 C           6.8671   -0.0600    0.0000 C.3     1  UNL1       -0.0491
     13 C           8.5991   -1.0600    0.0000 C.3     1  UNL1       -0.0624
     14 C          15.5273   -0.0600    0.0000 C.3     1  UNL1       -0.0467
     15 C           6.0010    0.4400    0.0000 C.3     1  UNL1       -0.0319
     16 C          16.3933    0.4400    0.0000 C.3     1  UNL1       -0.0627
     17 C          15.5273   -1.0600    0.0000 C.3     1  UNL1       -0.0627
     18 C           5.1350   -0.0600    0.0000 C.2     1  UNL1       -0.0744
     19 C           5.1350   -1.0600    0.0000 C.3     1  UNL1       -0.0437
     20 C           4.2690    0.4400    0.0000 C.2     1  UNL1       -0.0600
     21 C           3.4030   -0.0600    0.0000 C.3     1  UNL1        0.0626
     22 H          12.6002   -0.3700    0.0000 H       1  UNL1        0.0298
     23 H          11.5957    0.9149    0.0000 H       1  UNL1        0.0268
     24 H          10.7987    0.9149    0.0000 H       1  UNL1        0.0268
     25 H           8.0622   -0.3700    0.0000 H       1  UNL1        0.0298
     26 H           9.9326   -0.5349    0.0000 H       1  UNL1        0.0265
     27 H          10.7297   -0.5349    0.0000 H       1  UNL1        0.0265
     28 H           9.8637    0.9149    0.0000 H       1  UNL1        0.0268
     29 H           9.0666    0.9149    0.0000 H       1  UNL1        0.0268
     30 H          13.3278    0.9149    0.0000 H       1  UNL1        0.0268
     31 H          12.5307    0.9149    0.0000 H       1  UNL1        0.0268
     32 H           8.1316    0.9149    0.0000 H       1  UNL1        0.0268
     33 H           7.3346    0.9149    0.0000 H       1  UNL1        0.0268
     34 H          13.3967   -0.5349    0.0000 H       1  UNL1        0.0265
     35 H          14.1938   -0.5349    0.0000 H       1  UNL1        0.0265
     36 H          15.0598    0.9149    0.0000 H       1  UNL1        0.0268
     37 H          14.2628    0.9149    0.0000 H       1  UNL1        0.0268
     38 H          11.4432   -1.0600    0.0000 H       1  UNL1        0.0232
     39 H          12.0632   -1.6800    0.0000 H       1  UNL1        0.0232
     40 H          12.6832   -1.0600    0.0000 H       1  UNL1        0.0232
     41 H           6.4685   -0.5349    0.0000 H       1  UNL1        0.0268
     42 H           7.2656   -0.5349    0.0000 H       1  UNL1        0.0268
     43 H           7.9791   -1.0600    0.0000 H       1  UNL1        0.0232
     44 H           8.5991   -1.6800    0.0000 H       1  UNL1        0.0232
     45 H           9.2191   -1.0600    0.0000 H       1  UNL1        0.0232
     46 H          15.5273    0.5600    0.0000 H       1  UNL1        0.0295
     47 H           6.3996    0.9149    0.0000 H       1  UNL1        0.0310
     48 H           5.6025    0.9149    0.0000 H       1  UNL1        0.0310
     49 H          16.7033   -0.0969    0.0000 H       1  UNL1        0.0232
     50 H          16.9303    0.7500    0.0000 H       1  UNL1        0.0232
     51 H          16.0833    0.9769    0.0000 H       1  UNL1        0.0232
     52 H          14.9073   -1.0600    0.0000 H       1  UNL1        0.0232
     53 H          15.5273   -1.6800    0.0000 H       1  UNL1        0.0232
     54 H          16.1473   -1.0600    0.0000 H       1  UNL1        0.0232
     55 H           4.5150   -1.0600    0.0000 H       1  UNL1        0.0274
     56 H           5.1350   -1.6800    0.0000 H       1  UNL1        0.0274
     57 H           5.7550   -1.0600    0.0000 H       1  UNL1        0.0274
     58 H           4.2690    1.0600    0.0000 H       1  UNL1        0.0594
     59 H           3.0044   -0.5349    0.0000 H       1  UNL1        0.0601
     60 H           3.8015   -0.5349    0.0000 H       1  UNL1        0.0601
     61 H           2.0000    0.1300    0.0000 H       1  UNL1        0.2098
@<TRIPOS>BOND
     1     1    21    1
     2     1    61    1
     3     2     3    1
     4     2     7    1
     5     2    11    1
     6     2    22    1
     7     3     5    1
     8     3    23    1
     9     3    24    1
    10     4     6    1
    11     4     8    1
    12     4    13    1
    13     4    25    1
    14     5     6    1
    15     5    26    1
    16     5    27    1
    17     6    28    1
    18     6    29    1
    19     7     9    1
    20     7    30    1
    21     7    31    1
    22     8    12    1
    23     8    32    1
    24     8    33    1
    25     9    10    1
    26     9    34    1
    27     9    35    1
    28    10    14    1
    29    10    36    1
    30    10    37    1
    31    11    38    1
    32    11    39    1
    33    11    40    1
    34    12    15    1
    35    12    41    1
    36    12    42    1
    37    13    43    1
    38    13    44    1
    39    13    45    1
    40    14    16    1
    41    14    17    1
    42    14    46    1
    43    15    18    1
    44    15    47    1
    45    15    48    1
    46    16    49    1
    47    16    50    1
    48    16    51    1
    49    17    52    1
    50    17    53    1
    51    17    54    1
    52    18    19    1
    53    18    20    2
    54    19    55    1
    55    19    56    1
    56    19    57    1
    57    20    21    1
    58    20    58    1
    59    21    59    1
    60    21    60    1
