@<TRIPOS>MOLECULE
IMPHY016339
 34 35 0 0 0
SMALL
GASTEIGER

@<TRIPOS>ATOM
      1 C           4.5981   -0.5000    0.0000 C.3     1  UNL1       -0.0379
      2 C           4.5981    0.5000    0.0000 C.3     1  UNL1       -0.0379
      3 C           3.7320   -1.0000    0.0000 C.3     1  UNL1       -0.0474
      4 C           5.4920    1.0347    0.0000 C.3     1  UNL1       -0.0474
      5 C           5.4920   -1.0347    0.0000 C.3     1  UNL1       -0.0497
      6 C           3.7320    1.0000    0.0000 C.3     1  UNL1       -0.0497
      7 C           2.8660   -0.5000    0.0000 C.3     1  UNL1       -0.0436
      8 C           6.3981    0.5208    0.0000 C.3     1  UNL1       -0.0436
      9 C           6.3981   -0.5208    0.0000 C.3     1  UNL1       -0.0502
     10 C           2.8660    0.5000    0.0000 C.3     1  UNL1       -0.0502
     11 C           2.0000   -1.0000    0.0000 C.3     1  UNL1       -0.0624
     12 C           7.2622    1.0241    0.0000 C.3     1  UNL1       -0.0624
     13 H           4.5933   -1.1200    0.0000 H       1  UNL1        0.0304
     14 H           4.5933    1.1200    0.0000 H       1  UNL1        0.0304
     15 H           3.3335   -1.4750    0.0000 H       1  UNL1        0.0271
     16 H           4.1306   -1.4750    0.0000 H       1  UNL1        0.0271
     17 H           5.8856    1.5137    0.0000 H       1  UNL1        0.0271
     18 H           5.0874    1.5044    0.0000 H       1  UNL1        0.0271
     19 H           5.0874   -1.5044    0.0000 H       1  UNL1        0.0268
     20 H           5.8856   -1.5137    0.0000 H       1  UNL1        0.0268
     21 H           4.1306    1.4750    0.0000 H       1  UNL1        0.0268
     22 H           3.3335    1.4750    0.0000 H       1  UNL1        0.0268
     23 H           2.8660   -1.1200    0.0000 H       1  UNL1        0.0298
     24 H           6.9356    0.2119    0.0000 H       1  UNL1        0.0298
     25 H           6.6071   -1.1045    0.0000 H       1  UNL1        0.0268
     26 H           7.0089   -0.4147    0.0000 H       1  UNL1        0.0268
     27 H           2.6540    1.0826    0.0000 H       1  UNL1        0.0268
     28 H           2.2554    0.3923    0.0000 H       1  UNL1        0.0268
     29 H           1.6900   -0.4631    0.0000 H       1  UNL1        0.0232
     30 H           1.4631   -1.3100    0.0000 H       1  UNL1        0.0232
     31 H           2.3100   -1.5369    0.0000 H       1  UNL1        0.0232
     32 H           7.5742    0.4884    0.0000 H       1  UNL1        0.0232
     33 H           7.7979    1.3362    0.0000 H       1  UNL1        0.0232
     34 H           6.9501    1.5599    0.0000 H       1  UNL1        0.0232
@<TRIPOS>BOND
     1     1     2    1
     2     1     3    1
     3     1     5    1
     4     1    13    1
     5     2     4    1
     6     2     6    1
     7     2    14    1
     8     3     7    1
     9     3    15    1
    10     3    16    1
    11     4     8    1
    12     4    17    1
    13     4    18    1
    14     5     9    1
    15     5    19    1
    16     5    20    1
    17     6    10    1
    18     6    21    1
    19     6    22    1
    20     7    10    1
    21     7    11    1
    22     7    23    1
    23     8     9    1
    24     8    12    1
    25     8    24    1
    26     9    25    1
    27     9    26    1
    28    10    27    1
    29    10    28    1
    30    11    29    1
    31    11    30    1
    32    11    31    1
    33    12    32    1
    34    12    33    1
    35    12    34    1
