@<TRIPOS>MOLECULE
IMPHY010118
 24 25 0 0 0
SMALL
GASTEIGER

@<TRIPOS>ATOM
      1 O           5.6714   -1.3003    0.0000 O.3     1  UNL1       -0.4476
      2 O           7.0727   -2.3183    0.0000 O.2     1  UNL1       -0.2501
      3 O           8.5193    0.7688    0.0000 O.2     1  UNL1       -0.2915
      4 C           5.3858   -4.0173    0.0000 C.3     1  UNL1        0.0146
      5 C           4.5768   -3.4296    0.0000 C.3     1  UNL1        0.0325
      6 C           5.4904   -3.0228    0.0000 C.3     1  UNL1        0.1033
      7 C           4.7981   -4.8264    0.0000 C.3     1  UNL1        0.0009
      8 C           6.3804   -4.1219    0.0000 C.3     1  UNL1        0.0009
      9 C           3.5823   -3.3250    0.0000 C.2     1  UNL1       -0.0344
     10 C           6.0782   -2.2138    0.0000 C.2     1  UNL1        0.3170
     11 C           2.9945   -4.1341    0.0000 C.2     1  UNL1       -0.0478
     12 C           6.2592   -0.4912    0.0000 C.3     1  UNL1        0.1947
     13 C           2.0000   -4.0295    0.0000 C.3     1  UNL1        0.0260
     14 C           3.4013   -5.0476    0.0000 C.3     1  UNL1        0.0260
     15 C           7.2592   -0.4912    0.0000 C.3     1  UNL1        0.1166
     16 C           5.9502    0.4598    0.0000 C.2     1  UNL1       -0.0050
     17 C           6.7592    1.0476    0.0000 C.2     1  UNL1        0.0125
     18 C           7.5682    0.4598    0.0000 C.2     1  UNL1        0.1729
     19 C           4.9991    0.7688    0.0000 C.3     1  UNL1        0.0298
     20 C           6.7592    2.0476    0.0000 C.3     1  UNL1        0.0543
     21 C           7.6252    2.5476    0.0000 C.2     1  UNL1       -0.0259
     22 C           7.6252    3.5476    0.0000 C.2     1  UNL1       -0.0304
     23 C           8.4913    4.0476    0.0000 C.3     1  UNL1        0.0257
     24 C           8.4913    5.0476    0.0000 C.3     1  UNL1        0.0050
@<TRIPOS>BOND
     1     1    10    1
     2     1    12    1
     3     2    10    2
     4     3    18    2
     5     4     5    1
     6     4     6    1
     7     4     7    1
     8     4     8    1
     9     5     6    1
    10     5     9    1
    11     6    10    1
    12     9    11    2
    13    11    13    1
    14    11    14    1
    15    12    15    1
    16    12    16    1
    17    15    18    1
    18    16    17    2
    19    16    19    1
    20    17    18    1
    21    17    20    1
    22    20    21    1
    23    21    22    2
    24    22    23    1
    25    23    24    1
