@<TRIPOS>MOLECULE
IMPHY003392
 40 40 0 0 0
SMALL
GASTEIGER

@<TRIPOS>ATOM
      1 O           2.8660    0.4330    0.0000 O.3     1  UNL1       -0.5062
      2 C           4.5981    1.4330    0.0000 C.3     1  UNL1       -0.0092
      3 C           2.8660   -1.5670    0.0000 C.3     1  UNL1       -0.0092
      4 C           4.5981    0.4330    0.0000 C.ar    1  UNL1       -0.0000
      5 C           3.7320   -1.0670    0.0000 C.ar    1  UNL1       -0.0000
      6 C           3.7320   -0.0670    0.0000 C.ar    1  UNL1        0.1242
      7 C           5.4641   -0.0670    0.0000 C.ar    1  UNL1       -0.0517
      8 C           4.5981   -1.5670    0.0000 C.ar    1  UNL1       -0.0517
      9 C           4.5981    2.4330    0.0000 C.3     1  UNL1       -0.0559
     10 C           5.5981    1.4330    0.0000 C.3     1  UNL1       -0.0559
     11 C           3.5981    1.4330    0.0000 C.3     1  UNL1       -0.0559
     12 C           2.0000   -2.0670    0.0000 C.3     1  UNL1       -0.0559
     13 C           3.3660   -2.4330    0.0000 C.3     1  UNL1       -0.0559
     14 C           2.3660   -0.7010    0.0000 C.3     1  UNL1       -0.0559
     15 C           5.4641   -1.0670    0.0000 C.ar    1  UNL1       -0.0497
     16 C           6.3301   -1.5670    0.0000 C.3     1  UNL1       -0.0397
     17 H           6.0010    0.2430    0.0000 H       1  UNL1        0.0624
     18 H           4.5981   -2.1870    0.0000 H       1  UNL1        0.0624
     19 H           3.5981    2.0530    0.0000 H       1  UNL1        0.0238
     20 H           2.9781    1.4330    0.0000 H       1  UNL1        0.0238
     21 H           3.5981    0.8130    0.0000 H       1  UNL1        0.0238
     22 H           5.5981    0.8130    0.0000 H       1  UNL1        0.0238
     23 H           6.2181    1.4330    0.0000 H       1  UNL1        0.0238
     24 H           5.5981    2.0530    0.0000 H       1  UNL1        0.0238
     25 H           5.2181    2.4330    0.0000 H       1  UNL1        0.0238
     26 H           4.5981    3.0530    0.0000 H       1  UNL1        0.0238
     27 H           3.9781    2.4330    0.0000 H       1  UNL1        0.0238
     28 H           2.9030   -0.3910    0.0000 H       1  UNL1        0.0238
     29 H           2.0560   -0.1640    0.0000 H       1  UNL1        0.0238
     30 H           2.8291   -2.7430    0.0000 H       1  UNL1        0.0238
     31 H           3.6760   -2.9700    0.0000 H       1  UNL1        0.0238
     32 H           3.9030   -2.1230    0.0000 H       1  UNL1        0.0238
     33 H           1.6900   -1.5300    0.0000 H       1  UNL1        0.0238
     34 H           1.4631   -2.3770    0.0000 H       1  UNL1        0.0238
     35 H           2.3100   -2.6039    0.0000 H       1  UNL1        0.0238
     36 H           1.8291   -1.0110    0.0000 H       1  UNL1        0.0238
     37 H           6.0201   -2.1039    0.0000 H       1  UNL1        0.0278
     38 H           6.8671   -1.8770    0.0000 H       1  UNL1        0.0278
     39 H           6.6401   -1.0300    0.0000 H       1  UNL1        0.0278
     40 H           2.8660    1.0530    0.0000 H       1  UNL1        0.2922
@<TRIPOS>BOND
     1     1     6    1
     2     1    40    1
     3     2     4    1
     4     2     9    1
     5     2    10    1
     6     2    11    1
     7     3     5    1
     8     3    12    1
     9     3    13    1
    10     3    14    1
    11     4     6   ar
    12     4     7   ar
    13     5     6   ar
    14     5     8   ar
    15     7    15   ar
    16     7    17    1
    17     8    15   ar
    18     8    18    1
    19     9    25    1
    20     9    26    1
    21     9    27    1
    22    10    22    1
    23    10    23    1
    24    10    24    1
    25    11    19    1
    26    11    20    1
    27    11    21    1
    28    12    33    1
    29    12    34    1
    30    12    35    1
    31    13    30    1
    32    13    31    1
    33    13    32    1
    34    14    28    1
    35    14    29    1
    36    14    36    1
    37    15    16    1
    38    16    37    1
    39    16    38    1
    40    16    39    1
