@<TRIPOS>MOLECULE
IMPHY000015
 37 37 0 0 0
SMALL
GASTEIGER

@<TRIPOS>ATOM
      1 O           3.8660    2.5000    0.0000 O.2     1  UNL1       -0.2930
      2 C           3.0000   -1.0000    0.0000 C.3     1  UNL1       -0.0224
      3 C           3.0000   -2.0000    0.0000 C.3     1  UNL1       -0.0376
      4 C           3.8660   -0.5000    0.0000 C.3     1  UNL1        0.0037
      5 C           3.8660   -2.5000    0.0000 C.3     1  UNL1       -0.0462
      6 C           4.7320   -2.0000    0.0000 C.3     1  UNL1       -0.0312
      7 C           4.7320   -1.0000    0.0000 C.2     1  UNL1       -0.0693
      8 C           2.0000   -1.0000    0.0000 C.3     1  UNL1       -0.0587
      9 C           2.5000   -0.1340    0.0000 C.3     1  UNL1       -0.0587
     10 C           2.1340   -2.5000    0.0000 C.3     1  UNL1       -0.0619
     11 C           3.8660    0.5000    0.0000 C.2     1  UNL1       -0.0731
     12 C           5.5981   -0.5000    0.0000 C.2     1  UNL1       -0.0989
     13 C           4.7320    1.0000    0.0000 C.2     1  UNL1       -0.0228
     14 C           4.7320    2.0000    0.0000 C.2     1  UNL1        0.1528
     15 C           5.5981    2.5000    0.0000 C.3     1  UNL1       -0.0020
     16 H           3.0000   -2.6200    0.0000 H       1  UNL1        0.0304
     17 H           4.4030   -0.1900    0.0000 H       1  UNL1        0.0393
     18 H           3.4675   -2.9750    0.0000 H       1  UNL1        0.0271
     19 H           4.2646   -2.9750    0.0000 H       1  UNL1        0.0271
     20 H           4.9441   -2.5826    0.0000 H       1  UNL1        0.0310
     21 H           5.3426   -1.8923    0.0000 H       1  UNL1        0.0310
     22 H           2.0000   -0.3800    0.0000 H       1  UNL1        0.0235
     23 H           1.3800   -1.0000    0.0000 H       1  UNL1        0.0235
     24 H           2.0000   -1.6200    0.0000 H       1  UNL1        0.0235
     25 H           3.0369    0.1760    0.0000 H       1  UNL1        0.0235
     26 H           2.1900    0.4030    0.0000 H       1  UNL1        0.0235
     27 H           1.9631   -0.4440    0.0000 H       1  UNL1        0.0235
     28 H           1.8240   -1.9631    0.0000 H       1  UNL1        0.0233
     29 H           1.5970   -2.8100    0.0000 H       1  UNL1        0.0233
     30 H           2.4440   -3.0369    0.0000 H       1  UNL1        0.0233
     31 H           3.3291    0.8100    0.0000 H       1  UNL1        0.0579
     32 H           6.1350   -0.8100    0.0000 H       1  UNL1        0.0535
     33 H           5.5981    0.1200    0.0000 H       1  UNL1        0.0535
     34 H           5.2690    0.6900    0.0000 H       1  UNL1        0.0649
     35 H           5.9081    1.9631    0.0000 H       1  UNL1        0.0309
     36 H           6.1350    2.8100    0.0000 H       1  UNL1        0.0309
     37 H           5.2881    3.0369    0.0000 H       1  UNL1        0.0309
@<TRIPOS>BOND
     1     1    14    2
     2     2     3    1
     3     2     4    1
     4     2     8    1
     5     2     9    1
     6     3     5    1
     7     3    10    1
     8     3    16    1
     9     4     7    1
    10     4    11    1
    11     4    17    1
    12     5     6    1
    13     5    18    1
    14     5    19    1
    15     6     7    1
    16     6    20    1
    17     6    21    1
    18     7    12    2
    19     8    22    1
    20     8    23    1
    21     8    24    1
    22     9    25    1
    23     9    26    1
    24     9    27    1
    25    10    28    1
    26    10    29    1
    27    10    30    1
    28    11    13    2
    29    11    31    1
    30    12    32    1
    31    12    33    1
    32    13    14    1
    33    13    34    1
    34    14    15    1
    35    15    35    1
    36    15    36    1
    37    15    37    1
