@<TRIPOS>MOLECULE
IMPHY008181
 93 96 0 0 0
SMALL
GASTEIGER

@<TRIPOS>ATOM
      1 O           3.1226    0.8951    0.0000 O.3     1  UNL1       -0.4863
      2 O           3.9316    0.3074    0.0000 O.2     1  UNL1       -0.2734
      3 O           6.8132    0.0147    0.0000 O.2     1  UNL1       -0.2735
      4 O           4.6361   -1.2750    0.0000 O.2     1  UNL1       -0.2734
      5 O           8.8347    3.0002    0.0000 O.2     1  UNL1       -0.2741
      6 O           3.9700   -2.6573    0.0000 O.3     1  UNL1       -0.4944
      7 N           5.6542    1.3018    0.0000 N.am    1  UNL1       -0.2849
      8 N           5.5496   -0.8683    0.0000 N.am    1  UNL1       -0.2883
      9 N           8.2994    1.3529    0.0000 N.am    1  UNL1       -0.3024
     10 N           4.4271   -3.2640    0.0000 N.am    1  UNL1       -0.2904
     11 N          10.2016    0.7349    0.0000 N.3     1  UNL1       -0.2974
     12 C           4.8452    0.7141    0.0000 C.3     1  UNL1        0.1392
     13 C           4.0362    1.3018    0.0000 C.3     1  UNL1        0.1285
     14 C           4.3452    2.2529    0.0000 C.3     1  UNL1        0.0024
     15 C           5.3452    2.2529    0.0000 C.3     1  UNL1        0.0191
     16 C           4.7406   -0.2805    0.0000 C.2     1  UNL1        0.2404
     17 C           5.4451   -1.8628    0.0000 C.3     1  UNL1        0.1026
     18 C           6.5225   -0.6641    0.0000 C.3     1  UNL1        0.0156
     19 C           6.3543   -2.2648    0.0000 C.3     1  UNL1       -0.0243
     20 C           7.0188   -1.5254    0.0000 C.3     1  UNL1       -0.0350
     21 C           6.6052    0.9928    0.0000 C.2     1  UNL1        0.2369
     22 C           7.3484    1.6620    0.0000 C.3     1  UNL1        0.1022
     23 C           7.1405    2.6401    0.0000 C.3     1  UNL1       -0.0171
     24 C           4.5316   -2.2695    0.0000 C.2     1  UNL1        0.2373
     25 C           7.8836    3.3092    0.0000 C.3     1  UNL1       -0.0512
     26 C           6.1894    2.9491    0.0000 C.3     1  UNL1       -0.0603
     27 C           9.9936    1.7130    0.0000 C.3     1  UNL1        0.0893
     28 C           3.0181   -0.0994    0.0000 C.ar    1  UNL1        0.1245
     29 C           9.0426    2.0221    0.0000 C.2     1  UNL1        0.2311
     30 C          10.7368    2.3822    0.0000 C.3     1  UNL1       -0.0200
     31 C           7.6757    4.2874    0.0000 C.3     1  UNL1       -0.0650
     32 C          11.6878    2.0732    0.0000 C.3     1  UNL1       -0.0514
     33 C           3.8371   -0.6849    0.0000 C.ar    1  UNL1        0.0224
     34 C           2.1045   -0.5062    0.0000 C.ar    1  UNL1       -0.0191
     35 C          10.5289    3.3603    0.0000 C.3     1  UNL1       -0.0605
     36 C           3.5135   -3.6708    0.0000 C.2     1  UNL1       -0.0030
     37 C           3.7318   -1.6861    0.0000 C.ar    1  UNL1        0.1307
     38 C           2.8090   -2.0885    0.0000 C.ar    1  UNL1        0.0181
     39 C           2.0000   -1.5007    0.0000 C.ar    1  UNL1       -0.0476
     40 C          11.1526    0.4259    0.0000 C.3     1  UNL1       -0.0123
     41 C           9.4584    0.0658    0.0000 C.3     1  UNL1       -0.0123
     42 C          12.4310    2.7423    0.0000 C.3     1  UNL1       -0.0650
     43 C           2.7045   -3.0830    0.0000 C.2     1  UNL1       -0.0372
     44 C           4.9302   -2.9367    0.0000 C.3     1  UNL1        0.0788
     45 H           5.5813    0.2891    0.0000 H       1  UNL1        0.0634
     46 H           3.4045    1.8706    0.0000 H       1  UNL1        0.0757
     47 H           4.4100    2.8695    0.0000 H       1  UNL1        0.0317
     48 H           3.7387    2.3818    0.0000 H       1  UNL1        0.0317
     49 H           5.9516    2.3818    0.0000 H       1  UNL1        0.0466
     50 H           5.2804    2.8695    0.0000 H       1  UNL1        0.0466
     51 H           5.3563   -2.7081    0.0000 H       1  UNL1        0.0597
     52 H           7.0893   -0.4127    0.0000 H       1  UNL1        0.0465
     53 H           6.3321   -0.0741    0.0000 H       1  UNL1        0.0465
     54 H           6.0454   -2.8023    0.0000 H       1  UNL1        0.0288
     55 H           6.8564   -2.6284    0.0000 H       1  UNL1        0.0288
     56 H           7.4338   -1.9861    0.0000 H       1  UNL1        0.0281
     57 H           7.5205   -1.1611    0.0000 H       1  UNL1        0.0281
     58 H           7.8091    2.0768    0.0000 H       1  UNL1        0.0597
     59 H           7.0116    3.2466    0.0000 H       1  UNL1        0.0321
     60 H           8.4283    0.7465    0.0000 H       1  UNL1        0.1495
     61 H           8.2122    2.7834    0.0000 H       1  UNL1        0.0266
     62 H           8.4585    3.5415    0.0000 H       1  UNL1        0.0266
     63 H           6.3810    3.5388    0.0000 H       1  UNL1        0.0233
     64 H           5.5998    3.1407    0.0000 H       1  UNL1        0.0233
     65 H           5.9978    2.3595    0.0000 H       1  UNL1        0.0233
     66 H          10.5833    1.5215    0.0000 H       1  UNL1        0.0561
     67 H          10.1471    2.5738    0.0000 H       1  UNL1        0.0318
     68 H           4.9286   -3.6285    0.0000 H       1  UNL1        0.1543
     69 H           8.2822    4.4163    0.0000 H       1  UNL1        0.0230
     70 H           7.5468    4.8938    0.0000 H       1  UNL1        0.0230
     71 H           7.0692    4.1585    0.0000 H       1  UNL1        0.0230
     72 H          11.3968    1.5257    0.0000 H       1  UNL1        0.0266
     73 H          12.1764    1.6914    0.0000 H       1  UNL1        0.0266
     74 H           4.4025   -0.4305    0.0000 H       1  UNL1        0.0691
     75 H           1.6029   -0.1417    0.0000 H       1  UNL1        0.0654
     76 H          11.1353    3.4892    0.0000 H       1  UNL1        0.0233
     77 H          10.4000    3.9668    0.0000 H       1  UNL1        0.0233
     78 H           9.9224    3.2314    0.0000 H       1  UNL1        0.0233
     79 H           3.4487   -4.2874    0.0000 H       1  UNL1        0.0782
     80 H           1.4336   -1.7529    0.0000 H       1  UNL1        0.0626
     81 H          10.9610   -0.1638    0.0000 H       1  UNL1        0.0391
     82 H          11.7423    0.2343    0.0000 H       1  UNL1        0.0391
     83 H          11.3442    1.0155    0.0000 H       1  UNL1        0.0391
     84 H           9.0436    0.5265    0.0000 H       1  UNL1        0.0391
     85 H           8.9977   -0.3491    0.0000 H       1  UNL1        0.0391
     86 H           9.8733   -0.3950    0.0000 H       1  UNL1        0.0391
     87 H          12.8458    2.2815    0.0000 H       1  UNL1        0.0230
     88 H          12.8917    3.1572    0.0000 H       1  UNL1        0.0230
     89 H          12.0161    3.2030    0.0000 H       1  UNL1        0.0230
     90 H           2.1381   -3.3352    0.0000 H       1  UNL1        0.0637
     91 H           4.7570   -3.5320    0.0000 H       1  UNL1        0.0660
     92 H           5.5255   -3.1098    0.0000 H       1  UNL1        0.0660
     93 H           5.1034   -2.3413    0.0000 H       1  UNL1        0.0660
@<TRIPOS>BOND
     1     1    13    1
     2     1    28    1
     3     2    16    2
     4     3    21    2
     5     4    24    2
     6     5    29    2
     7     6    37    1
     8     6    44    1
     9     7    12    1
    10     7    15    1
    11     7    21   am
    12     8    16   am
    13     8    17    1
    14     8    18    1
    15    22     9    1
    16     9    29   am
    17     9    60    1
    18    10    24   am
    19    10    36    1
    20    10    68    1
    21    27    11    1
    22    11    40    1
    23    11    41    1
    24    12    13    1
    25    12    16    1
    26    12    45    1
    27    13    14    1
    28    13    46    1
    29    14    15    1
    30    14    47    1
    31    14    48    1
    32    15    49    1
    33    15    50    1
    34    17    19    1
    35    17    24    1
    36    17    51    1
    37    18    20    1
    38    18    52    1
    39    18    53    1
    40    19    20    1
    41    19    54    1
    42    19    55    1
    43    20    56    1
    44    20    57    1
    45    21    22    1
    46    22    23    1
    47    22    58    1
    48    23    25    1
    49    23    26    1
    50    23    59    1
    51    25    31    1
    52    25    61    1
    53    25    62    1
    54    26    63    1
    55    26    64    1
    56    26    65    1
    57    27    29    1
    58    27    30    1
    59    27    66    1
    60    28    33   ar
    61    28    34   ar
    62    30    32    1
    63    30    35    1
    64    30    67    1
    65    31    69    1
    66    31    70    1
    67    31    71    1
    68    32    42    1
    69    32    72    1
    70    32    73    1
    71    33    37   ar
    72    33    74    1
    73    34    39   ar
    74    34    75    1
    75    35    76    1
    76    35    77    1
    77    35    78    1
    78    36    43    2
    79    36    79    1
    80    37    38   ar
    81    38    39   ar
    82    38    43    1
    83    39    80    1
    84    40    81    1
    85    40    82    1
    86    40    83    1
    87    41    84    1
    88    41    85    1
    89    41    86    1
    90    42    87    1
    91    42    88    1
    92    42    89    1
    93    43    90    1
    94    44    91    1
    95    44    92    1
    96    44    93    1
