@<TRIPOS>MOLECULE
IMPHY005794
 81 85 0 0 0
SMALL
GASTEIGER

@<TRIPOS>ATOM
      1 O          12.2545    2.5364    0.0000 O.3     1  UNL1       -0.3912
      2 O           2.6200   -1.9273    0.0000 O.3     1  UNL1       -0.4802
      3 O           2.6400   -0.1954    0.0000 O.2     1  UNL1       -0.2504
      4 C           6.9146   -0.6080    0.0000 C.3     1  UNL1       -0.0194
      5 C           7.7806   -1.1080    0.0000 C.3     1  UNL1       -0.0051
      6 C           6.0046   -1.1148    0.0000 C.3     1  UNL1       -0.0284
      7 C           5.9966   -2.1564    0.0000 C.3     1  UNL1       -0.0286
      8 C           8.6466   -0.6080    0.0000 C.2     1  UNL1       -0.0633
      9 C           7.7967   -2.1495    0.0000 C.3     1  UNL1       -0.0429
     10 C           6.9146    0.3920    0.0000 C.3     1  UNL1       -0.0428
     11 C           9.5406    0.9267    0.0000 C.3     1  UNL1       -0.0073
     12 C           6.8986   -2.6772    0.0000 C.3     1  UNL1       -0.0465
     13 C           8.6466    0.3920    0.0000 C.2     1  UNL1       -0.0636
     14 C           5.0778   -0.5507    0.0000 C.3     1  UNL1       -0.0336
     15 C          10.4467    0.4128    0.0000 C.3     1  UNL1       -0.0242
     16 C           5.0611   -2.7062    0.0000 C.3     1  UNL1       -0.0464
     17 C           7.7806    0.8920    0.0000 C.3     1  UNL1       -0.0304
     18 C           4.1299   -1.0787    0.0000 C.3     1  UNL1        0.0651
     19 C           6.0486   -0.1080    0.0000 C.3     1  UNL1       -0.0585
     20 C           9.5406   -1.1426    0.0000 C.3     1  UNL1       -0.0306
     21 C           8.6466   -1.6080    0.0000 C.3     1  UNL1       -0.0553
     22 C          11.3904    0.9481    0.0000 C.3     1  UNL1       -0.0053
     23 C          10.4467   -0.6288    0.0000 C.3     1  UNL1       -0.0451
     24 C           4.1215   -2.1636    0.0000 C.3     1  UNL1       -0.0370
     25 C           9.5155    2.0114    0.0000 C.3     1  UNL1       -0.0413
     26 C           5.9889   -3.1564    0.0000 C.3     1  UNL1       -0.0593
     27 C          11.3904    2.0331    0.0000 C.3     1  UNL1        0.0607
     28 C          10.4467    2.5683    0.0000 C.3     1  UNL1       -0.0256
     29 C           8.6707    1.4200    0.0000 C.3     1  UNL1       -0.0556
     30 C           3.6399   -0.2069    0.0000 C.3     1  UNL1       -0.0494
     31 C          12.3904    0.9442    0.0000 C.3     1  UNL1       -0.0572
     32 C          11.8871    0.0801    0.0000 C.3     1  UNL1       -0.0572
     33 C           3.1299   -1.0671    0.0000 C.2     1  UNL1        0.3107
     34 H           6.7358   -1.5483    0.0000 H       1  UNL1        0.0312
     35 H           8.0147   -2.7299    0.0000 H       1  UNL1        0.0274
     36 H           8.4058   -2.0340    0.0000 H       1  UNL1        0.0274
     37 H           6.7025    0.9746    0.0000 H       1  UNL1        0.0274
     38 H           6.3040    0.2844    0.0000 H       1  UNL1        0.0274
     39 H           6.5013   -3.1532    0.0000 H       1  UNL1        0.0271
     40 H           7.2996   -3.1501    0.0000 H       1  UNL1        0.0271
     41 H           5.4860   -0.0841    0.0000 H       1  UNL1        0.0279
     42 H           4.6878   -0.0687    0.0000 H       1  UNL1        0.0279
     43 H          11.1811   -0.0150    0.0000 H       1  UNL1        0.0315
     44 H           4.6638   -3.1821    0.0000 H       1  UNL1        0.0271
     45 H           5.4621   -3.1790    0.0000 H       1  UNL1        0.0271
     46 H           8.1792    1.3670    0.0000 H       1  UNL1        0.0310
     47 H           7.3821    1.3670    0.0000 H       1  UNL1        0.0310
     48 H           6.3586    0.4290    0.0000 H       1  UNL1        0.0235
     49 H           5.5116    0.2020    0.0000 H       1  UNL1        0.0235
     50 H           5.7386   -0.6449    0.0000 H       1  UNL1        0.0235
     51 H           9.1360   -1.6124    0.0000 H       1  UNL1        0.0310
     52 H           9.9342   -1.6217    0.0000 H       1  UNL1        0.0310
     53 H           8.3366   -2.1449    0.0000 H       1  UNL1        0.0238
     54 H           9.1836   -1.9180    0.0000 H       1  UNL1        0.0238
     55 H           8.9566   -1.0710    0.0000 H       1  UNL1        0.0238
     56 H          10.6557   -1.2125    0.0000 H       1  UNL1        0.0271
     57 H          11.0575   -0.5227    0.0000 H       1  UNL1        0.0271
     58 H           3.5115   -2.0529    0.0000 H       1  UNL1        0.0276
     59 H           3.9080   -2.7457    0.0000 H       1  UNL1        0.0276
     60 H           9.2930    2.5901    0.0000 H       1  UNL1        0.0274
     61 H           8.9073    1.8912    0.0000 H       1  UNL1        0.0274
     62 H           5.3689   -3.1516    0.0000 H       1  UNL1        0.0235
     63 H           5.9841   -3.7764    0.0000 H       1  UNL1        0.0235
     64 H           6.6088   -3.1612    0.0000 H       1  UNL1        0.0235
     65 H          11.9280    1.7241    0.0000 H       1  UNL1        0.0599
     66 H          10.8403    3.0473    0.0000 H       1  UNL1        0.0290
     67 H          10.0421    3.0381    0.0000 H       1  UNL1        0.0290
     68 H           8.9766    1.9593    0.0000 H       1  UNL1        0.0238
     69 H           8.1314    1.7258    0.0000 H       1  UNL1        0.0238
     70 H           8.3649    0.8807    0.0000 H       1  UNL1        0.0238
     71 H           4.1804    0.0968    0.0000 H       1  UNL1        0.0240
     72 H           3.3362    0.3335    0.0000 H       1  UNL1        0.0240
     73 H           3.0994   -0.5107    0.0000 H       1  UNL1        0.0240
     74 H          11.3490   -0.2278    0.0000 H       1  UNL1        0.0236
     75 H          12.1950   -0.4580    0.0000 H       1  UNL1        0.0236
     76 H          12.4252    0.3881    0.0000 H       1  UNL1        0.0236
     77 H          12.3880    0.3242    0.0000 H       1  UNL1        0.0236
     78 H          13.0104    0.9418    0.0000 H       1  UNL1        0.0236
     79 H          12.3928    1.5642    0.0000 H       1  UNL1        0.0236
     80 H          12.2521    3.1564    0.0000 H       1  UNL1        0.2098
     81 H           2.0000   -1.9201    0.0000 H       1  UNL1        0.2951
@<TRIPOS>BOND
     1    27     1    1
     2     1    80    1
     3     2    33    1
     4     2    81    1
     5     3    33    2
     6     4     5    1
     7     4     6    1
     8     4    10    1
     9     4    19    1
    10     5     8    1
    11     5     9    1
    12     5    21    1
    13     6     7    1
    14     6    14    1
    15     6    34    1
    16     7    12    1
    17     7    16    1
    18     7    26    1
    19     8    13    2
    20     8    20    1
    21     9    12    1
    22     9    35    1
    23     9    36    1
    24    10    17    1
    25    10    37    1
    26    10    38    1
    27    11    13    1
    28    11    15    1
    29    11    25    1
    30    11    29    1
    31    12    39    1
    32    12    40    1
    33    13    17    1
    34    14    18    1
    35    14    41    1
    36    14    42    1
    37    15    22    1
    38    15    23    1
    39    15    43    1
    40    16    24    1
    41    16    44    1
    42    16    45    1
    43    17    46    1
    44    17    47    1
    45    18    24    1
    46    18    30    1
    47    18    33    1
    48    19    48    1
    49    19    49    1
    50    19    50    1
    51    20    23    1
    52    20    51    1
    53    20    52    1
    54    21    53    1
    55    21    54    1
    56    21    55    1
    57    22    27    1
    58    22    31    1
    59    22    32    1
    60    23    56    1
    61    23    57    1
    62    24    58    1
    63    24    59    1
    64    25    28    1
    65    25    60    1
    66    25    61    1
    67    26    62    1
    68    26    63    1
    69    26    64    1
    70    27    28    1
    71    27    65    1
    72    28    66    1
    73    28    67    1
    74    29    68    1
    75    29    69    1
    76    29    70    1
    77    30    71    1
    78    30    72    1
    79    30    73    1
    80    31    77    1
    81    31    78    1
    82    31    79    1
    83    32    74    1
    84    32    75    1
    85    32    76    1
