@<TRIPOS>MOLECULE
IMPHY005158
 24 25 0 0 0
SMALL
GASTEIGER

@<TRIPOS>ATOM
      1 O           6.3981   -0.1758    0.0000 O.3     1  UNL1       -0.4577
      2 O           3.7320   -1.6550    0.0000 O.3     1  UNL1       -0.5058
      3 O           5.4804   -1.6896    0.0000 O.2     1  UNL1       -0.2448
      4 O           2.0000    1.3450    0.0000 O.3     1  UNL1       -0.5066
      5 C           5.4920    1.3797    0.0000 C.3     1  UNL1        0.0104
      6 C           6.3981    0.8658    0.0000 C.3     1  UNL1        0.1046
      7 C           4.5981    0.8450    0.0000 C.ar    1  UNL1       -0.0229
      8 C           4.5981   -0.1550    0.0000 C.ar    1  UNL1        0.1038
      9 C           7.2622    1.3692    0.0000 C.3     1  UNL1       -0.0274
     10 C           3.7320    1.3450    0.0000 C.ar    1  UNL1       -0.0159
     11 C           5.4920   -0.6897    0.0000 C.2     1  UNL1        0.3433
     12 C           3.7320   -0.6550    0.0000 C.ar    1  UNL1        0.1345
     13 C           2.8660    0.8450    0.0000 C.ar    1  UNL1        0.1206
     14 C           2.8660   -0.1550    0.0000 C.ar    1  UNL1        0.0221
     15 H           5.8856    1.8587    0.0000 H       1  UNL1        0.0349
     16 H           5.0874    1.8494    0.0000 H       1  UNL1        0.0349
     17 H           6.9356    0.5569    0.0000 H       1  UNL1        0.0734
     18 H           7.5742    0.8334    0.0000 H       1  UNL1        0.0265
     19 H           7.7979    1.6812    0.0000 H       1  UNL1        0.0265
     20 H           6.9501    1.9049    0.0000 H       1  UNL1        0.0265
     21 H           3.7320    1.9650    0.0000 H       1  UNL1        0.0657
     22 H           2.3291   -0.4650    0.0000 H       1  UNL1        0.0691
     23 H           3.1951   -1.9650    0.0000 H       1  UNL1        0.2922
     24 H           2.0000    1.9650    0.0000 H       1  UNL1        0.2921
@<TRIPOS>BOND
     1     1     6    1
     2     1    11    1
     3     2    12    1
     4     2    23    1
     5     3    11    2
     6     4    13    1
     7     4    24    1
     8     5     6    1
     9     5     7    1
    10     5    15    1
    11     5    16    1
    12     6     9    1
    13     6    17    1
    14     7     8   ar
    15     7    10   ar
    16     8    11    1
    17     8    12   ar
    18     9    18    1
    19     9    19    1
    20     9    20    1
    21    10    13   ar
    22    10    21    1
    23    12    14   ar
    24    13    14   ar
    25    14    22    1
