@<TRIPOS>MOLECULE
IMPHY016395
 40 41 0 0 0
SMALL
GASTEIGER

@<TRIPOS>ATOM
      1 O           4.5981    0.2500    0.0000 O.3     1  UNL1       -0.4646
      2 O           2.8660    0.2500    0.0000 O.2     1  UNL1       -0.2508
      3 C           5.4641    1.7500    0.0000 C.3     1  UNL1       -0.0146
      4 C           5.4641    2.7500    0.0000 C.3     1  UNL1       -0.0246
      5 C           4.5981    1.2500    0.0000 C.3     1  UNL1        0.0928
      6 C           6.3301    3.2500    0.0000 C.ar    1  UNL1       -0.0472
      7 C           2.8660   -1.7500    0.0000 C.3     1  UNL1       -0.0176
      8 C           3.7320   -1.2500    0.0000 C.3     1  UNL1        0.0489
      9 C           2.8660   -2.7500    0.0000 C.ar    1  UNL1       -0.0468
     10 C           3.7320   -0.2500    0.0000 C.2     1  UNL1        0.3074
     11 C           7.1962    2.7500    0.0000 C.ar    1  UNL1       -0.0586
     12 C           6.3301    4.2500    0.0000 C.ar    1  UNL1       -0.0586
     13 C           2.0000   -3.2500    0.0000 C.ar    1  UNL1       -0.0586
     14 C           3.7320   -3.2500    0.0000 C.ar    1  UNL1       -0.0586
     15 C           8.0622    3.2500    0.0000 C.ar    1  UNL1       -0.0615
     16 C           7.1962    4.7500    0.0000 C.ar    1  UNL1       -0.0615
     17 C           8.0622    4.2500    0.0000 C.ar    1  UNL1       -0.0617
     18 C           2.0000   -4.2500    0.0000 C.ar    1  UNL1       -0.0615
     19 C           3.7320   -4.2500    0.0000 C.ar    1  UNL1       -0.0615
     20 C           2.8660   -4.7500    0.0000 C.ar    1  UNL1       -0.0617
     21 H           5.6762    1.1674    0.0000 H       1  UNL1        0.0301
     22 H           6.0747    1.8577    0.0000 H       1  UNL1        0.0301
     23 H           5.2520    3.3326    0.0000 H       1  UNL1        0.0314
     24 H           4.8535    2.6423    0.0000 H       1  UNL1        0.0314
     25 H           4.3860    1.8326    0.0000 H       1  UNL1        0.0697
     26 H           3.9875    1.1423    0.0000 H       1  UNL1        0.0697
     27 H           2.6540   -1.1674    0.0000 H       1  UNL1        0.0318
     28 H           2.2554   -1.8577    0.0000 H       1  UNL1        0.0318
     29 H           3.9441   -1.8326    0.0000 H       1  UNL1        0.0381
     30 H           4.3426   -1.1423    0.0000 H       1  UNL1        0.0381
     31 H           7.1962    2.1300    0.0000 H       1  UNL1        0.0620
     32 H           5.7932    4.5600    0.0000 H       1  UNL1        0.0620
     33 H           1.4631   -2.9400    0.0000 H       1  UNL1        0.0620
     34 H           4.2690   -2.9400    0.0000 H       1  UNL1        0.0620
     35 H           8.5991    2.9400    0.0000 H       1  UNL1        0.0618
     36 H           7.1962    5.3700    0.0000 H       1  UNL1        0.0618
     37 H           8.5991    4.5600    0.0000 H       1  UNL1        0.0618
     38 H           1.4631   -4.5600    0.0000 H       1  UNL1        0.0618
     39 H           4.2690   -4.5600    0.0000 H       1  UNL1        0.0618
     40 H           2.8660   -5.3700    0.0000 H       1  UNL1        0.0618
@<TRIPOS>BOND
     1     1     5    1
     2     1    10    1
     3     2    10    2
     4     3     4    1
     5     3     5    1
     6     3    21    1
     7     3    22    1
     8     4     6    1
     9     4    23    1
    10     4    24    1
    11     5    25    1
    12     5    26    1
    13     6    11   ar
    14     6    12   ar
    15     7     8    1
    16     7     9    1
    17     7    27    1
    18     7    28    1
    19     8    10    1
    20     8    29    1
    21     8    30    1
    22     9    13   ar
    23     9    14   ar
    24    11    15   ar
    25    11    31    1
    26    12    16   ar
    27    12    32    1
    28    13    18   ar
    29    13    33    1
    30    14    19   ar
    31    14    34    1
    32    15    17   ar
    33    15    35    1
    34    16    17   ar
    35    16    36    1
    36    17    37    1
    37    18    20   ar
    38    18    38    1
    39    19    20   ar
    40    19    39    1
    41    20    40    1
