@<TRIPOS>MOLECULE
IMPHY017534
 32 33 0 0 0
SMALL
GASTEIGER

@<TRIPOS>ATOM
      1 C           3.7320    0.0193    0.0000 C.3     1  UNL1       -0.0083
      2 C           3.7320   -0.9807    0.0000 C.3     1  UNL1       -0.0317
      3 C           2.8660    0.5193    0.0000 C.3     1  UNL1       -0.0437
      4 C           4.6783   -1.2855    0.0000 C.3     1  UNL1       -0.0457
      5 C           2.8660   -1.4807    0.0000 C.3     1  UNL1       -0.0494
      6 C           4.6783    0.3240    0.0000 C.2     1  UNL1       -0.0675
      7 C           5.2619   -0.4807    0.0000 C.3     1  UNL1       -0.0309
      8 C           2.0000    0.0193    0.0000 C.3     1  UNL1       -0.0523
      9 C           2.0000   -0.9807    0.0000 C.3     1  UNL1       -0.0528
     10 C           3.7320    1.0193    0.0000 C.3     1  UNL1       -0.0556
     11 C           4.9889    1.2745    0.0000 C.2     1  UNL1       -0.0873
     12 C           5.9674    1.4807    0.0000 C.3     1  UNL1       -0.0465
     13 H           3.7977   -1.5972    0.0000 H       1  UNL1        0.0309
     14 H           3.2646    0.9942    0.0000 H       1  UNL1        0.0274
     15 H           2.4675    0.9942    0.0000 H       1  UNL1        0.0274
     16 H           4.4272   -1.8524    0.0000 H       1  UNL1        0.0271
     17 H           5.2156   -1.5947    0.0000 H       1  UNL1        0.0271
     18 H           2.4675   -1.9557    0.0000 H       1  UNL1        0.0268
     19 H           3.2646   -1.9557    0.0000 H       1  UNL1        0.0268
     20 H           5.7227   -0.8955    0.0000 H       1  UNL1        0.0310
     21 H           5.7227   -0.0660    0.0000 H       1  UNL1        0.0310
     22 H           1.7880    0.6019    0.0000 H       1  UNL1        0.0266
     23 H           1.3894   -0.0884    0.0000 H       1  UNL1        0.0266
     24 H           1.3894   -0.8731    0.0000 H       1  UNL1        0.0265
     25 H           1.7880   -1.5634    0.0000 H       1  UNL1        0.0265
     26 H           4.3520    1.0193    0.0000 H       1  UNL1        0.0238
     27 H           3.7320    1.6393    0.0000 H       1  UNL1        0.0238
     28 H           3.1120    1.0193    0.0000 H       1  UNL1        0.0238
     29 H           4.5749    1.7360    0.0000 H       1  UNL1        0.0569
     30 H           6.0953    0.8741    0.0000 H       1  UNL1        0.0272
     31 H           6.5741    1.6086    0.0000 H       1  UNL1        0.0272
     32 H           5.8396    2.0874    0.0000 H       1  UNL1        0.0272
@<TRIPOS>BOND
     1     1     2    1
     2     1     3    1
     3     1     6    1
     4     1    10    1
     5     2     4    1
     6     2     5    1
     7     2    13    1
     8     3     8    1
     9     3    14    1
    10     3    15    1
    11     4     7    1
    12     4    16    1
    13     4    17    1
    14     5     9    1
    15     5    18    1
    16     5    19    1
    17     6     7    1
    18     6    11    2
    19     7    20    1
    20     7    21    1
    21     8     9    1
    22     8    22    1
    23     8    23    1
    24     9    24    1
    25     9    25    1
    26    10    26    1
    27    10    27    1
    28    10    28    1
    29    11    12    1
    30    11    29    1
    31    12    30    1
    32    12    31    1
    33    12    32    1
