@<TRIPOS>MOLECULE
IMPHY000545
 24 24 0 0 0
SMALL
GASTEIGER

@<TRIPOS>ATOM
      1 C           3.7320    1.2500    0.0000 C.3     1  UNL1       -0.0213
      2 C           3.7320    0.2500    0.0000 C.ar    1  UNL1       -0.0419
      3 C           2.8660   -0.2500    0.0000 C.ar    1  UNL1       -0.0470
      4 C           4.5981    1.7500    0.0000 C.3     1  UNL1       -0.0586
      5 C           2.8660    1.7500    0.0000 C.3     1  UNL1       -0.0586
      6 C           4.5981   -0.2500    0.0000 C.ar    1  UNL1       -0.0581
      7 C           2.8660   -1.2500    0.0000 C.ar    1  UNL1       -0.0586
      8 C           2.0000    0.2500    0.0000 C.3     1  UNL1       -0.0394
      9 C           4.5981   -1.2500    0.0000 C.ar    1  UNL1       -0.0615
     10 C           3.7320   -1.7500    0.0000 C.ar    1  UNL1       -0.0615
     11 H           3.7320    1.8700    0.0000 H       1  UNL1        0.0344
     12 H           4.9081    1.2131    0.0000 H       1  UNL1        0.0235
     13 H           5.1350    2.0600    0.0000 H       1  UNL1        0.0235
     14 H           4.2881    2.2869    0.0000 H       1  UNL1        0.0235
     15 H           3.1760    2.2869    0.0000 H       1  UNL1        0.0235
     16 H           2.3291    2.0600    0.0000 H       1  UNL1        0.0235
     17 H           2.5560    1.2131    0.0000 H       1  UNL1        0.0235
     18 H           5.1350    0.0600    0.0000 H       1  UNL1        0.0620
     19 H           2.3291   -1.5600    0.0000 H       1  UNL1        0.0620
     20 H           2.3100    0.7869    0.0000 H       1  UNL1        0.0278
     21 H           1.4631    0.5600    0.0000 H       1  UNL1        0.0278
     22 H           1.6900   -0.2869    0.0000 H       1  UNL1        0.0278
     23 H           5.1350   -1.5600    0.0000 H       1  UNL1        0.0618
     24 H           3.7320   -2.3700    0.0000 H       1  UNL1        0.0618
@<TRIPOS>BOND
     1     1     2    1
     2     1     4    1
     3     1     5    1
     4     1    11    1
     5     2     3   ar
     6     2     6   ar
     7     3     7   ar
     8     3     8    1
     9     4    12    1
    10     4    13    1
    11     4    14    1
    12     5    15    1
    13     5    16    1
    14     5    17    1
    15     6     9   ar
    16     6    18    1
    17     7    10   ar
    18     7    19    1
    19     8    20    1
    20     8    21    1
    21     8    22    1
    22     9    10   ar
    23     9    23    1
    24    10    24    1
