@<TRIPOS>MOLECULE
IMPHY009912
 39 41 0 0 0
SMALL
GASTEIGER

@<TRIPOS>ATOM
      1 O           3.5836   -0.1023    0.0000 O.3     1  UNL1       -0.4564
      2 O           8.0321   -0.4101    0.0000 O.3     1  UNL1       -0.3905
      3 O           2.0000   -0.9070    0.0000 O.2     1  UNL1       -0.2505
      4 O           6.2740    2.6622    0.0000 O.2     1  UNL1       -0.2923
      5 C           6.2619   -0.4070    0.0000 C.3     1  UNL1        0.0193
      6 C           4.5298   -1.4070    0.0000 C.3     1  UNL1        0.0128
      7 C           4.5298   -0.4070    0.0000 C.3     1  UNL1        0.1289
      8 C           5.3958    0.0930    0.0000 C.2     1  UNL1       -0.0148
      9 C           6.2619   -1.4070    0.0000 C.3     1  UNL1       -0.0410
     10 C           5.3958   -1.9070    0.0000 C.3     1  UNL1       -0.0449
     11 C           7.1719    0.0998    0.0000 C.3     1  UNL1        0.0714
     12 C           3.5836   -1.7117    0.0000 C.3     1  UNL1        0.0601
     13 C           7.1279   -0.9070    0.0000 C.3     1  UNL1       -0.0533
     14 C           5.3798    1.1345    0.0000 C.2     1  UNL1       -0.0047
     15 C           7.1799    1.1414    0.0000 C.3     1  UNL1        0.0370
     16 C           3.0000   -0.9070    0.0000 C.2     1  UNL1        0.3109
     17 C           6.2778    1.6623    0.0000 C.2     1  UNL1        0.1615
     18 C           3.2729   -2.6622    0.0000 C.3     1  UNL1       -0.0519
     19 C           4.5080    1.6245    0.0000 C.3     1  UNL1       -0.0363
     20 H           4.4399   -2.2522    0.0000 H       1  UNL1        0.0348
     21 H           4.4399    0.4382    0.0000 H       1  UNL1        0.0785
     22 H           6.4739   -1.9896    0.0000 H       1  UNL1        0.0275
     23 H           6.8725   -1.2993    0.0000 H       1  UNL1        0.0275
     24 H           4.9973   -2.3819    0.0000 H       1  UNL1        0.0270
     25 H           5.7944   -2.3819    0.0000 H       1  UNL1        0.0270
     26 H           7.7118    0.4047    0.0000 H       1  UNL1        0.0606
     27 H           2.9711   -1.8079    0.0000 H       1  UNL1        0.0415
     28 H           6.8179   -1.4439    0.0000 H       1  UNL1        0.0239
     29 H           7.6648   -1.2170    0.0000 H       1  UNL1        0.0239
     30 H           7.4379   -0.3701    0.0000 H       1  UNL1        0.0239
     31 H           7.7899    1.0306    0.0000 H       1  UNL1        0.0370
     32 H           7.3935    1.7235    0.0000 H       1  UNL1        0.0370
     33 H           2.6836   -2.4696    0.0000 H       1  UNL1        0.0238
     34 H           3.0803   -3.2516    0.0000 H       1  UNL1        0.0238
     35 H           3.8623   -2.8549    0.0000 H       1  UNL1        0.0238
     36 H           4.8118    2.1649    0.0000 H       1  UNL1        0.0279
     37 H           3.9676    1.9282    0.0000 H       1  UNL1        0.0279
     38 H           4.2043    1.0840    0.0000 H       1  UNL1        0.0279
     39 H           8.5726   -0.1064    0.0000 H       1  UNL1        0.2098
@<TRIPOS>BOND
     1     1     7    1
     2     1    16    1
     3    11     2    1
     4     2    39    1
     5     3    16    2
     6     4    17    2
     7     5     8    1
     8     5     9    1
     9     5    11    1
    10     5    13    1
    11     6     7    1
    12     6    10    1
    13     6    12    1
    14     6    20    1
    15     7     8    1
    16     7    21    1
    17     8    14    2
    18     9    10    1
    19     9    22    1
    20     9    23    1
    21    10    24    1
    22    10    25    1
    23    11    15    1
    24    11    26    1
    25    12    16    1
    26    12    18    1
    27    12    27    1
    28    13    28    1
    29    13    29    1
    30    13    30    1
    31    14    17    1
    32    14    19    1
    33    15    17    1
    34    15    31    1
    35    15    32    1
    36    18    33    1
    37    18    34    1
    38    18    35    1
    39    19    36    1
    40    19    37    1
    41    19    38    1
