@<TRIPOS>MOLECULE
IMPHY003586
 50 53 0 0 0
SMALL
GASTEIGER

@<TRIPOS>ATOM
      1 O           6.3580   -0.2693    0.0000 O.2     1  UNL1       -0.4507
      2 O          10.8076    0.0357    0.0000 O.3     1  UNL1       -0.4524
      3 O          10.8014   -1.5738    0.0000 O.3     1  UNL1       -0.4489
      4 O           4.5981    2.7654    0.0000 O.3     1  UNL1       -0.4905
      5 O           4.5981   -1.2346    0.0000 O.3     1  UNL1       -0.4884
      6 O           2.8660    1.7654    0.0000 O.3     1  UNL1       -0.4884
      7 O           2.8660   -0.2346    0.0000 O.3     1  UNL1       -0.4883
      8 O           8.9846   -2.7621    0.0000 O.3     1  UNL1       -0.4913
      9 O           6.3465    2.8000    0.0000 O.2     1  UNL1       -0.2869
     10 C           5.4641    1.2654    0.0000 C.ar    1  UNL1        0.1130
     11 C           5.4641    0.2654    0.0000 C.ar    1  UNL1        0.1881
     12 C           7.2641    0.2446    0.0000 C.ar    1  UNL1        0.1396
     13 C           8.1282   -0.2587    0.0000 C.ar    1  UNL1        0.0245
     14 C           4.5981    1.7654    0.0000 C.ar    1  UNL1        0.1798
     15 C           4.5981   -0.2346    0.0000 C.ar    1  UNL1        0.2088
     16 C           6.3580    1.8001    0.0000 C.ar    1  UNL1        0.1969
     17 C           7.2641    1.2862    0.0000 C.ar    1  UNL1        0.0288
     18 C           3.7320    1.2654    0.0000 C.ar    1  UNL1        0.2082
     19 C           9.8602   -0.2654    0.0000 C.ar    1  UNL1        0.1706
     20 C           3.7320    0.2654    0.0000 C.ar    1  UNL1        0.2110
     21 C           8.9962    0.2379    0.0000 C.ar    1  UNL1       -0.0052
     22 C           9.8564   -1.2654    0.0000 C.ar    1  UNL1        0.2076
     23 C           8.1244   -1.2587    0.0000 C.ar    1  UNL1       -0.0054
     24 C           8.9884   -1.7621    0.0000 C.ar    1  UNL1        0.1660
     25 C          11.3881   -0.7713    0.0000 C.3     1  UNL1        0.2334
     26 C           3.7320    3.2654    0.0000 C.3     1  UNL1        0.0790
     27 C           3.7320   -1.7346    0.0000 C.3     1  UNL1        0.0791
     28 C           2.0000    1.2654    0.0000 C.3     1  UNL1        0.0791
     29 C           2.0000    0.2654    0.0000 C.3     1  UNL1        0.0791
     30 C           9.8487   -3.2654    0.0000 C.3     1  UNL1        0.0790
     31 H           7.7998    1.5983    0.0000 H       1  UNL1        0.0693
     32 H           8.9985    0.8579    0.0000 H       1  UNL1        0.0662
     33 H           7.5862   -1.5667    0.0000 H       1  UNL1        0.0662
     34 H          11.8474   -1.1878    0.0000 H       1  UNL1        0.1166
     35 H          11.8506   -0.3584    0.0000 H       1  UNL1        0.1166
     36 H           4.0420    3.8023    0.0000 H       1  UNL1        0.0660
     37 H           3.1951    3.5754    0.0000 H       1  UNL1        0.0660
     38 H           3.4220    2.7285    0.0000 H       1  UNL1        0.0660
     39 H           3.4220   -1.1977    0.0000 H       1  UNL1        0.0660
     40 H           3.1951   -2.0446    0.0000 H       1  UNL1        0.0660
     41 H           4.0420   -2.2715    0.0000 H       1  UNL1        0.0660
     42 H           1.6900    1.8023    0.0000 H       1  UNL1        0.0660
     43 H           1.4631    0.9554    0.0000 H       1  UNL1        0.0660
     44 H           2.3100    0.7285    0.0000 H       1  UNL1        0.0660
     45 H           2.3100    0.8023    0.0000 H       1  UNL1        0.0660
     46 H           1.4631    0.5754    0.0000 H       1  UNL1        0.0660
     47 H           1.6900   -0.2715    0.0000 H       1  UNL1        0.0660
     48 H           9.5366   -3.8011    0.0000 H       1  UNL1        0.0660
     49 H          10.3844   -3.5775    0.0000 H       1  UNL1        0.0660
     50 H          10.1607   -2.7297    0.0000 H       1  UNL1        0.0660
@<TRIPOS>BOND
     1     1    11   ar
     2     1    12   ar
     3     2    19    1
     4     2    25    1
     5     3    22    1
     6     3    25    1
     7     4    14    1
     8     4    26    1
     9     5    15    1
    10     5    27    1
    11     6    18    1
    12     6    28    1
    13     7    20    1
    14     7    29    1
    15     8    24    1
    16     8    30    1
    17     9    16    2
    18    10    11   ar
    19    10    14   ar
    20    10    16   ar
    21    11    15   ar
    22    12    13    1
    23    12    17   ar
    24    13    21   ar
    25    13    23   ar
    26    14    18   ar
    27    15    20   ar
    28    16    17   ar
    29    17    31    1
    30    18    20   ar
    31    19    21   ar
    32    19    22   ar
    33    21    32    1
    34    22    24   ar
    35    23    24   ar
    36    23    33    1
    37    25    34    1
    38    25    35    1
    39    26    36    1
    40    26    37    1
    41    26    38    1
    42    27    39    1
    43    27    40    1
    44    27    41    1
    45    28    42    1
    46    28    43    1
    47    28    44    1
    48    29    45    1
    49    29    46    1
    50    29    47    1
    51    30    48    1
    52    30    49    1
    53    30    50    1
