@<TRIPOS>MOLECULE
IMPHY002930
 14 14 0 0 0
SMALL
GASTEIGER

@<TRIPOS>ATOM
      1 O           3.7320    1.7500    0.0000 O.co2   1  UNL1       -0.5446
      2 O           2.0000    1.7500    0.0000 O.co2   1  UNL1       -0.5446
      3 C           2.8660    0.2500    0.0000 C.ar    1  UNL1       -0.0027
      4 C           2.0000   -0.2500    0.0000 C.ar    1  UNL1       -0.0529
      5 C           3.7320   -0.2500    0.0000 C.ar    1  UNL1       -0.0529
      6 C           2.0000   -1.2500    0.0000 C.ar    1  UNL1       -0.0611
      7 C           3.7320   -1.2500    0.0000 C.ar    1  UNL1       -0.0611
      8 C           2.8660   -1.7500    0.0000 C.ar    1  UNL1       -0.0617
      9 C           2.8660    1.2500    0.0000 C.2     1  UNL1        0.0717
     10 H           1.4631    0.0600    0.0000 H       1  UNL1        0.0624
     11 H           4.2690    0.0600    0.0000 H       1  UNL1        0.0624
     12 H           1.4631   -1.5600    0.0000 H       1  UNL1        0.0618
     13 H           4.2690   -1.5600    0.0000 H       1  UNL1        0.0618
     14 H           2.8660   -2.3700    0.0000 H       1  UNL1        0.0618
@<TRIPOS>UNITY_ATOM_ATTR
1 1
charge -1
@<TRIPOS>BOND
     1     1     9   ar
     2     2     9   ar
     3     3     4   ar
     4     3     5   ar
     5     3     9    1
     6     4     6   ar
     7     4    10    1
     8     5     7   ar
     9     5    11    1
    10     6     8   ar
    11     6    12    1
    12     7     8   ar
    13     7    13    1
    14     8    14    1
