@<TRIPOS>MOLECULE
IMPHY004846
 97 103 0 0 0
SMALL
GASTEIGER

@<TRIPOS>ATOM
      1 O           5.9860    0.5419    0.0000 O.3     1  UNL1       -0.3281
      2 O           6.8680   -1.9996    0.0000 O.3     1  UNL1       -0.4512
      3 O           8.6382   -1.0027    0.0000 O.3     1  UNL1       -0.4500
      4 O           8.6540    1.0455    0.0000 O.3     1  UNL1       -0.4476
      5 O           6.8802    2.0697    0.0000 O.3     1  UNL1       -0.4275
      6 O           4.8772   -1.9655    0.0000 O.3     1  UNL1       -0.4584
      7 O           5.8477   -3.6798    0.0000 O.2     1  UNL1       -0.2449
      8 O           9.5216    0.4872    0.0000 O.2     1  UNL1       -0.2449
      9 O           7.7938    2.5489    0.0000 O.2     1  UNL1       -0.2449
     10 O           5.1481    2.0630    0.0000 O.2     1  UNL1       -0.2449
     11 O           5.8772   -1.9655    0.0000 O.2     1  UNL1       -0.2449
     12 O           6.3741   -6.3338    0.0000 O.3     1  UNL1       -0.5028
     13 O           5.3803   -6.3338    0.0000 O.3     1  UNL1       -0.5028
     14 O           9.4464   -4.5757    0.0000 O.3     1  UNL1       -0.5032
     15 O           8.4223   -6.3496    0.0000 O.3     1  UNL1       -0.5009
     16 O           3.3321   -6.3496    0.0000 O.3     1  UNL1       -0.5009
     17 O           2.3079   -4.5757    0.0000 O.3     1  UNL1       -0.5032
     18 O          12.9739   -0.5528    0.0000 O.3     1  UNL1       -0.5032
     19 O          11.2072   -3.5326    0.0000 O.3     1  UNL1       -0.5032
     20 O          10.4015    5.0388    0.0000 O.3     1  UNL1       -0.5032
     21 O          12.1220    2.0322    0.0000 O.3     1  UNL1       -0.5032
     22 O          12.9507   -2.5527    0.0000 O.3     1  UNL1       -0.5009
     23 O           4.2686    5.5597    0.0000 O.3     1  UNL1       -0.5032
     24 O           7.7327    5.5730    0.0000 O.3     1  UNL1       -0.5032
     25 O          12.1297    4.0322    0.0000 O.3     1  UNL1       -0.5009
     26 O           5.9968    6.5663    0.0000 O.3     1  UNL1       -0.5009
     27 C           6.8680   -0.9996    0.0000 C.3     1  UNL1        0.1730
     28 C           7.7780   -0.4927    0.0000 C.3     1  UNL1        0.1851
     29 C           6.0020   -0.4996    0.0000 C.3     1  UNL1        0.1371
     30 C           7.7861    0.5489    0.0000 C.3     1  UNL1        0.2053
     31 C           6.8840    1.0697    0.0000 C.3     1  UNL1        0.2465
     32 C           5.1360   -0.9996    0.0000 C.3     1  UNL1        0.1226
     33 C           6.3772   -2.8315    0.0000 C.2     1  UNL1        0.3405
     34 C           9.5100   -0.5128    0.0000 C.2     1  UNL1        0.3399
     35 C           8.6579    2.0455    0.0000 C.2     1  UNL1        0.3400
     36 C           6.8772   -3.6976    0.0000 C.ar    1  UNL1        0.0740
     37 C           6.0122    2.5663    0.0000 C.2     1  UNL1        0.3417
     38 C           5.3772   -2.8315    0.0000 C.2     1  UNL1        0.3401
     39 C           6.3772   -4.5636    0.0000 C.ar    1  UNL1        0.0458
     40 C           4.8772   -3.6976    0.0000 C.ar    1  UNL1        0.0740
     41 C          10.3702   -1.0227    0.0000 C.ar    1  UNL1        0.0661
     42 C           5.3772   -4.5636    0.0000 C.ar    1  UNL1        0.0458
     43 C           9.5258    2.5422    0.0000 C.ar    1  UNL1        0.0661
     44 C           6.0084    3.5663    0.0000 C.ar    1  UNL1        0.0662
     45 C           7.9187   -3.6815    0.0000 C.ar    1  UNL1       -0.0017
     46 C           6.8840   -5.4736    0.0000 C.ar    1  UNL1        0.1708
     47 C           4.8703   -5.4736    0.0000 C.ar    1  UNL1        0.1708
     48 C           3.8357   -3.6815    0.0000 C.ar    1  UNL1       -0.0017
     49 C           8.4464   -4.5795    0.0000 C.ar    1  UNL1        0.1628
     50 C          10.3586   -2.0227    0.0000 C.ar    1  UNL1       -0.0023
     51 C          11.2419   -0.5328    0.0000 C.ar    1  UNL1       -0.0023
     52 C           7.9256   -5.4816    0.0000 C.ar    1  UNL1        0.2012
     53 C          10.3899    2.0388    0.0000 C.ar    1  UNL1       -0.0023
     54 C           9.5297    3.5422    0.0000 C.ar    1  UNL1       -0.0023
     55 C           3.8287   -5.4816    0.0000 C.ar    1  UNL1        0.2012
     56 C           6.8724    4.0697    0.0000 C.ar    1  UNL1       -0.0023
     57 C           5.1404    4.0630    0.0000 C.ar    1  UNL1       -0.0023
     58 C           3.3079   -4.5795    0.0000 C.ar    1  UNL1        0.1628
     59 C          12.1021   -1.0428    0.0000 C.ar    1  UNL1        0.1628
     60 C          11.2188   -2.5326    0.0000 C.ar    1  UNL1        0.1628
     61 C          10.3976    4.0388    0.0000 C.ar    1  UNL1        0.1628
     62 C          11.2579    2.5355    0.0000 C.ar    1  UNL1        0.1628
     63 C          12.0905   -2.0427    0.0000 C.ar    1  UNL1        0.2006
     64 C           5.1366    5.0630    0.0000 C.ar    1  UNL1        0.1628
     65 C           6.8686    5.0697    0.0000 C.ar    1  UNL1        0.1628
     66 C          11.2617    3.5355    0.0000 C.ar    1  UNL1        0.2006
     67 C           6.0006    5.5663    0.0000 C.ar    1  UNL1        0.2006
     68 H           7.6009   -1.4302    0.0000 H       1  UNL1        0.0801
     69 H           7.7697   -1.1127    0.0000 H       1  UNL1        0.0813
     70 H           5.2626   -0.0803    0.0000 H       1  UNL1        0.0670
     71 H           8.3212    0.2358    0.0000 H       1  UNL1        0.0837
     72 H           7.4203    1.3807    0.0000 H       1  UNL1        0.1098
     73 H           4.9755   -0.4007    0.0000 H       1  UNL1        0.0725
     74 H           4.5160   -0.9996    0.0000 H       1  UNL1        0.0725
     75 H           8.2225   -3.1410    0.0000 H       1  UNL1        0.0664
     76 H           3.5319   -3.1410    0.0000 H       1  UNL1        0.0664
     77 H           9.8181   -2.3264    0.0000 H       1  UNL1        0.0663
     78 H          11.2491    0.0872    0.0000 H       1  UNL1        0.0663
     79 H          10.3875    1.4189    0.0000 H       1  UNL1        0.0663
     80 H           8.9940    3.8542    0.0000 H       1  UNL1        0.0663
     81 H           7.4106    3.7617    0.0000 H       1  UNL1        0.0663
     82 H           4.6047    3.7509    0.0000 H       1  UNL1        0.0663
     83 H           6.6778   -6.8742    0.0000 H       1  UNL1        0.2923
     84 H           5.0766   -6.8742    0.0000 H       1  UNL1        0.2923
     85 H           9.7544   -4.0375    0.0000 H       1  UNL1        0.2923
     86 H           9.0423   -6.3519    0.0000 H       1  UNL1        0.2924
     87 H           2.7121   -6.3519    0.0000 H       1  UNL1        0.2924
     88 H           2.0000   -4.0375    0.0000 H       1  UNL1        0.2923
     89 H          13.5072   -0.8690    0.0000 H       1  UNL1        0.2923
     90 H          11.7405   -3.8488    0.0000 H       1  UNL1        0.2923
     91 H           9.8658    5.3509    0.0000 H       1  UNL1        0.2923
     92 H          12.6601    2.3401    0.0000 H       1  UNL1        0.2923
     93 H          13.4912   -2.2489    0.0000 H       1  UNL1        0.2924
     94 H           3.7329    5.2476    0.0000 H       1  UNL1        0.2923
     95 H           7.7303    6.1930    0.0000 H       1  UNL1        0.2923
     96 H          12.1321    4.6522    0.0000 H       1  UNL1        0.2924
     97 H           5.4587    6.8742    0.0000 H       1  UNL1        0.2924
@<TRIPOS>BOND
     1     1    29    1
     2     1    31    1
     3     2    27    1
     4     2    33    1
     5    28     3    1
     6     3    34    1
     7    30     4    1
     8     4    35    1
     9    31     5    1
    10     5    37    1
    11     6    32    1
    12     6    38    1
    13     7    33    2
    14     8    34    2
    15     9    35    2
    16    10    37    2
    17    11    38    2
    18    12    46    1
    19    12    83    1
    20    13    47    1
    21    13    84    1
    22    14    49    1
    23    14    85    1
    24    15    52    1
    25    15    86    1
    26    16    55    1
    27    16    87    1
    28    17    58    1
    29    17    88    1
    30    18    59    1
    31    18    89    1
    32    19    60    1
    33    19    90    1
    34    20    61    1
    35    20    91    1
    36    21    62    1
    37    21    92    1
    38    22    63    1
    39    22    93    1
    40    23    64    1
    41    23    94    1
    42    24    65    1
    43    24    95    1
    44    25    66    1
    45    25    96    1
    46    26    67    1
    47    26    97    1
    48    27    28    1
    49    27    29    1
    50    27    68    1
    51    28    30    1
    52    28    69    1
    53    29    32    1
    54    29    70    1
    55    30    31    1
    56    30    71    1
    57    31    72    1
    58    32    73    1
    59    32    74    1
    60    33    36    1
    61    34    41    1
    62    35    43    1
    63    36    39   ar
    64    36    45   ar
    65    37    44    1
    66    38    40    1
    67    39    42    1
    68    39    46   ar
    69    40    42   ar
    70    40    48   ar
    71    41    50   ar
    72    41    51   ar
    73    42    47   ar
    74    43    53   ar
    75    43    54   ar
    76    44    56   ar
    77    44    57   ar
    78    45    49   ar
    79    45    75    1
    80    46    52   ar
    81    47    55   ar
    82    48    58   ar
    83    48    76    1
    84    49    52   ar
    85    50    60   ar
    86    50    77    1
    87    51    59   ar
    88    51    78    1
    89    53    62   ar
    90    53    79    1
    91    54    61   ar
    92    54    80    1
    93    55    58   ar
    94    56    65   ar
    95    56    81    1
    96    57    64   ar
    97    57    82    1
    98    59    63   ar
    99    60    63   ar
   100    61    66   ar
   101    62    66   ar
   102    64    67   ar
   103    65    67   ar
