@<TRIPOS>MOLECULE
IMPHY007366
 39 41 0 0 0
SMALL
GASTEIGER

@<TRIPOS>ATOM
      1 C           2.5739    1.2704    0.0000 C.3     1  UNL1       -0.0202
      2 C           2.3886    2.0435    0.0000 C.3     1  UNL1       -0.0312
      3 C           2.0000    0.8503    0.0000 C.3     1  UNL1       -0.0312
      4 C           3.2246    1.1078    0.0000 C.3     1  UNL1       -0.0230
      5 C           4.0843    1.4331    0.0000 C.3     1  UNL1       -0.0346
      6 C           3.3827    2.1768    0.0000 C.3     1  UNL1       -0.0461
      7 C           3.3827    0.4719    0.0000 C.3     1  UNL1       -0.0461
      8 C           2.8211    2.3935    0.0000 C.3     1  UNL1       -0.0585
      9 C           4.0904    0.6073    0.0000 C.3     1  UNL1       -0.0434
     10 C           3.9331    2.0136    0.0000 C.3     1  UNL1       -0.0588
     11 C           4.0899   -0.3927    0.0000 C.3     1  UNL1       -0.0340
     12 C           4.9557   -0.8931    0.0000 C.2     1  UNL1       -0.0853
     13 C           4.9552   -1.8931    0.0000 C.2     1  UNL1       -0.0796
     14 C           5.8210   -2.3935    0.0000 C.3     1  UNL1       -0.0440
     15 C           4.0890   -2.3926    0.0000 C.3     1  UNL1       -0.0440
     16 H           1.9917    2.5198    0.0000 H       1  UNL1        0.0309
     17 H           1.4542    0.5561    0.0000 H       1  UNL1        0.0309
     18 H           4.7031    1.4720    0.0000 H       1  UNL1        0.0306
     19 H           3.9117    2.5001    0.0000 H       1  UNL1        0.0271
     20 H           3.1754    2.7611    0.0000 H       1  UNL1        0.0271
     21 H           3.1480   -0.1019    0.0000 H       1  UNL1        0.0271
     22 H           3.9240    0.1696    0.0000 H       1  UNL1        0.0271
     23 H           3.4266    2.2602    0.0000 H       1  UNL1        0.0235
     24 H           2.9543    2.9990    0.0000 H       1  UNL1        0.0235
     25 H           2.2156    2.5267    0.0000 H       1  UNL1        0.0235
     26 H           4.7009    0.4994    0.0000 H       1  UNL1        0.0274
     27 H           4.3027    1.1899    0.0000 H       1  UNL1        0.0274
     28 H           4.4214    1.6317    0.0000 H       1  UNL1        0.0235
     29 H           4.3150    2.5020    0.0000 H       1  UNL1        0.0235
     30 H           3.4447    2.3956    0.0000 H       1  UNL1        0.0235
     31 H           3.4794   -0.2847    0.0000 H       1  UNL1        0.0308
     32 H           3.8776   -0.9752    0.0000 H       1  UNL1        0.0308
     33 H           5.4928   -0.5833    0.0000 H       1  UNL1        0.0571
     34 H           5.5108   -2.9303    0.0000 H       1  UNL1        0.0274
     35 H           6.3578   -2.7037    0.0000 H       1  UNL1        0.0274
     36 H           6.1313   -1.8567    0.0000 H       1  UNL1        0.0274
     37 H           3.7792   -1.8556    0.0000 H       1  UNL1        0.0274
     38 H           3.5519   -2.7024    0.0000 H       1  UNL1        0.0274
     39 H           4.3987   -2.9297    0.0000 H       1  UNL1        0.0274
@<TRIPOS>BOND
     1     1     2    1
     2     1     3    1
     3     1     4    1
     4     1     8    1
     5     2     3    1
     6     2     6    1
     7     2    16    1
     8     3     7    1
     9     3    17    1
    10     4     5    1
    11     4     9    1
    12     4    10    1
    13     5     6    1
    14     5     7    1
    15     5    18    1
    16     6    19    1
    17     6    20    1
    18     7    21    1
    19     7    22    1
    20     8    23    1
    21     8    24    1
    22     8    25    1
    23     9    11    1
    24     9    26    1
    25     9    27    1
    26    10    28    1
    27    10    29    1
    28    10    30    1
    29    11    12    1
    30    11    31    1
    31    11    32    1
    32    12    13    2
    33    12    33    1
    34    13    14    1
    35    13    15    1
    36    14    34    1
    37    14    35    1
    38    14    36    1
    39    15    37    1
    40    15    38    1
    41    15    39    1
