@<TRIPOS>MOLECULE
IMPHY002115
 49 52 0 0 0
SMALL
GASTEIGER

@<TRIPOS>ATOM
      1 O           7.5587   -2.5301    0.0000 O.3     1  UNL1       -0.4646
      2 O           9.2080   -2.0013    0.0000 O.2     1  UNL1       -0.5138
      3 O           6.2760   -1.3662    0.0000 O.2     1  UNL1       -0.2452
      4 N           6.9654    2.0780    0.0000 N.2     1  UNL1       -0.2288
      5 N           4.5124    0.9605    0.0000 N.ar    1  UNL1       -0.3525
      6 C           6.2962    1.3348    0.0000 C.3     1  UNL1        0.1952
      7 C           6.6028    0.3393    0.0000 C.3     1  UNL1        0.0234
      8 C           7.6200    0.1149    0.0000 C.3     1  UNL1        0.0154
      9 C           5.3181    1.5427    0.0000 C.ar    1  UNL1        0.0889
     10 C           8.3170    0.8890    0.0000 C.3     1  UNL1        0.0614
     11 C           6.6564    3.0290    0.0000 C.3     1  UNL1        0.1494
     12 C           5.0091    2.4938    0.0000 C.ar    1  UNL1       -0.0067
     13 C           5.6782    3.2369    0.0000 C.3     1  UNL1        0.0342
     14 C           7.9875    1.8771    0.0000 C.2     1  UNL1        0.1502
     15 C           4.0150    2.4912    0.0000 C.ar    1  UNL1        0.0035
     16 C           7.9253   -0.8373    0.0000 C.2     1  UNL1        0.0747
     17 C           3.7086    1.5455    0.0000 C.ar    1  UNL1        0.0471
     18 C           9.2959    0.6848    0.0000 C.2     1  UNL1       -0.0781
     19 C           3.3334    3.2707    0.0000 C.ar    1  UNL1       -0.0523
     20 C           2.6994    1.3138    0.0000 C.ar    1  UNL1       -0.0378
     21 C           7.2533   -1.5779    0.0000 C.2     1  UNL1        0.3381
     22 C           8.9027   -1.0490    0.0000 C.2     1  UNL1        0.0911
     23 C           9.9622    1.4306    0.0000 C.2     1  UNL1       -0.1019
     24 C           2.3191    3.0624    0.0000 C.ar    1  UNL1       -0.0611
     25 C           2.0000    2.0773    0.0000 C.ar    1  UNL1       -0.0598
     26 C           6.8867   -3.2707    0.0000 C.3     1  UNL1        0.0820
     27 H           5.7226    0.7075    0.0000 H       1  UNL1        0.1133
     28 H           5.9878    0.2609    0.0000 H       1  UNL1        0.0340
     29 H           6.5748   -0.2800    0.0000 H       1  UNL1        0.0340
     30 H           8.2262   -0.0152    0.0000 H       1  UNL1        0.0365
     31 H           8.5097    0.2997    0.0000 H       1  UNL1        0.0450
     32 H           7.2703    3.1153    0.0000 H       1  UNL1        0.1029
     33 H           6.6780    3.6486    0.0000 H       1  UNL1        0.1029
     34 H           5.9105    3.8118    0.0000 H       1  UNL1        0.0375
     35 H           5.1524    3.5655    0.0000 H       1  UNL1        0.0375
     36 H           8.3970    2.3426    0.0000 H       1  UNL1        0.1326
     37 H           4.5113    0.3405    0.0000 H       1  UNL1        0.1658
     38 H           9.4898    0.0959    0.0000 H       1  UNL1        0.0574
     39 H           3.5313    3.8583    0.0000 H       1  UNL1        0.0624
     40 H           2.5152    0.7218    0.0000 H       1  UNL1        0.0638
     41 H           9.3193   -0.5899    0.0000 H       1  UNL1        0.1026
     42 H          10.5691    1.3040    0.0000 H       1  UNL1        0.0532
     43 H           9.7683    2.0195    0.0000 H       1  UNL1        0.0532
     44 H           1.9056    3.5243    0.0000 H       1  UNL1        0.0618
     45 H           1.3942    1.9455    0.0000 H       1  UNL1        0.0618
     46 H           9.8140   -2.1325    0.0000 H       1  UNL1        0.2912
     47 H           6.4276   -2.8541    0.0000 H       1  UNL1        0.0661
     48 H           6.4701   -3.7298    0.0000 H       1  UNL1        0.0661
     49 H           7.3458   -3.6873    0.0000 H       1  UNL1        0.0661
@<TRIPOS>UNITY_ATOM_ATTR
4 1
charge 1
@<TRIPOS>BOND
     1     1    21    1
     2     1    26    1
     3     2    22    1
     4     2    46    1
     5     3    21    2
     6     4     6    1
     7     4    11    1
     8     4    14    2
     9     5     9   ar
    10     5    17   ar
    11     5    37    1
    12     6     7    1
    13     6     9    1
    14     6    27    1
    15     7     8    1
    16     7    28    1
    17     7    29    1
    18     8    10    1
    19     8    16    1
    20     8    30    1
    21     9    12   ar
    22    10    14    1
    23    10    18    1
    24    10    31    1
    25    11    13    1
    26    11    32    1
    27    11    33    1
    28    12    13    1
    29    12    15   ar
    30    13    34    1
    31    13    35    1
    32    14    36    1
    33    15    17   ar
    34    15    19   ar
    35    16    21    1
    36    16    22    2
    37    17    20   ar
    38    18    23    2
    39    18    38    1
    40    19    24   ar
    41    19    39    1
    42    20    25   ar
    43    20    40    1
    44    22    41    1
    45    23    42    1
    46    23    43    1
    47    24    25   ar
    48    24    44    1
    49    25    45    1
    50    26    47    1
    51    26    48    1
    52    26    49    1
