@<TRIPOS>MOLECULE
IMPHY006103
 38 40 0 0 0
SMALL
GASTEIGER

@<TRIPOS>ATOM
      1 O           6.0682   -0.1754    0.0000 O.2     1  UNL1       -0.4507
      2 O           7.8003    1.8246    0.0000 O.3     1  UNL1       -0.5007
      3 O           8.6663   -2.6754    0.0000 O.3     1  UNL1       -0.4914
      4 O           4.3198    2.8592    0.0000 O.3     1  UNL1       -0.5058
      5 O          10.3984   -1.6754    0.0000 O.3     1  UNL1       -0.4915
      6 O           6.0682    2.8246    0.0000 O.2     1  UNL1       -0.2830
      7 O           2.5381   -0.1995    0.0000 O.3     1  UNL1       -0.5065
      8 C           6.9343    0.3246    0.0000 C.ar    1  UNL1        0.1807
      9 C           5.2022    1.3246    0.0000 C.ar    1  UNL1        0.1092
     10 C           5.2022    0.3246    0.0000 C.ar    1  UNL1        0.1465
     11 C           7.8003   -0.1754    0.0000 C.ar    1  UNL1        0.0247
     12 C           6.9343    1.3246    0.0000 C.ar    1  UNL1        0.2082
     13 C           6.0682    1.8246    0.0000 C.ar    1  UNL1        0.2379
     14 C           4.3083    1.8593    0.0000 C.ar    1  UNL1        0.1348
     15 C           7.8003   -1.1754    0.0000 C.ar    1  UNL1       -0.0055
     16 C           4.3083   -0.2101    0.0000 C.ar    1  UNL1        0.0231
     17 C           8.6663    0.3246    0.0000 C.ar    1  UNL1       -0.0473
     18 C           8.6663   -1.6754    0.0000 C.ar    1  UNL1        0.1622
     19 C           3.4022    0.3038    0.0000 C.ar    1  UNL1        0.1239
     20 C           3.4022    1.3454    0.0000 C.ar    1  UNL1        0.0223
     21 C           9.5323   -1.1754    0.0000 C.ar    1  UNL1        0.1615
     22 C           9.5323   -0.1754    0.0000 C.ar    1  UNL1       -0.0156
     23 C           7.8003   -3.1754    0.0000 C.3     1  UNL1        0.0790
     24 C          11.2644   -1.1754    0.0000 C.3     1  UNL1        0.0790
     25 H           7.2634   -1.4854    0.0000 H       1  UNL1        0.0662
     26 H           4.3154   -0.8300    0.0000 H       1  UNL1        0.0691
     27 H           8.6663    0.9446    0.0000 H       1  UNL1        0.0626
     28 H           2.8665    1.6575    0.0000 H       1  UNL1        0.0691
     29 H          10.0693    0.1346    0.0000 H       1  UNL1        0.0655
     30 H           7.8003    2.4446    0.0000 H       1  UNL1        0.2924
     31 H           3.7865    3.1754    0.0000 H       1  UNL1        0.2922
     32 H           2.0000    0.1084    0.0000 H       1  UNL1        0.2921
     33 H           7.4903   -2.6385    0.0000 H       1  UNL1        0.0660
     34 H           7.2634   -3.4854    0.0000 H       1  UNL1        0.0660
     35 H           8.1103   -3.7123    0.0000 H       1  UNL1        0.0660
     36 H          11.5744   -1.7123    0.0000 H       1  UNL1        0.0660
     37 H          11.8013   -0.8654    0.0000 H       1  UNL1        0.0660
     38 H          10.9544   -0.6385    0.0000 H       1  UNL1        0.0660
@<TRIPOS>BOND
     1     1     8   ar
     2     1    10   ar
     3     2    12    1
     4     2    30    1
     5     3    18    1
     6     3    23    1
     7     4    14    1
     8     4    31    1
     9     5    21    1
    10     5    24    1
    11     6    13    2
    12     7    19    1
    13     7    32    1
    14     8    11    1
    15     8    12   ar
    16     9    10   ar
    17     9    13   ar
    18     9    14   ar
    19    10    16   ar
    20    11    15   ar
    21    11    17   ar
    22    12    13   ar
    23    14    20   ar
    24    15    18   ar
    25    15    25    1
    26    16    19   ar
    27    16    26    1
    28    17    22   ar
    29    17    27    1
    30    18    21   ar
    31    19    20   ar
    32    20    28    1
    33    21    22   ar
    34    22    29    1
    35    23    33    1
    36    23    34    1
    37    23    35    1
    38    24    36    1
    39    24    37    1
    40    24    38    1
