@<TRIPOS>MOLECULE
IMPHY002430
 111 119 0 0 0
SMALL
GASTEIGER

@<TRIPOS>ATOM
      1 O          12.4118   -0.6440    0.0000 O.3     1  UNL1       -0.4510
      2 O          11.9962   -1.4838    0.0000 O.3     1  UNL1       -0.4501
      3 O          10.3455   -1.0787    0.0000 O.3     1  UNL1       -0.4501
      4 O          13.8279    1.7717    0.0000 O.3     1  UNL1       -0.3832
      5 O          11.5096    1.3690    0.0000 O.3     1  UNL1       -0.4505
      6 O           9.4628    0.1270    0.0000 O.3     1  UNL1       -0.4573
      7 O          15.0779    1.8769    0.0000 O.3     1  UNL1       -0.5030
      8 O          14.2615   -1.4889    0.0000 O.2     1  UNL1       -0.2449
      9 O          16.8099   -1.1231    0.0000 O.3     1  UNL1       -0.5028
     10 O          16.8099    0.8769    0.0000 O.3     1  UNL1       -0.5009
     11 O          12.1807   -3.1047    0.0000 O.2     1  UNL1       -0.2449
     12 O          16.2705   -2.1760    0.0000 O.3     1  UNL1       -0.5028
     13 O           9.0065   -0.0528    0.0000 O.2     1  UNL1       -0.2449
     14 O          16.0729   -4.1082    0.0000 O.3     1  UNL1       -0.5009
     15 O          14.3106   -4.9249    0.0000 O.3     1  UNL1       -0.5032
     16 O          12.1008    2.9970    0.0000 O.2     1  UNL1       -0.2449
     17 O           8.3140   -1.3957    0.0000 O.2     1  UNL1       -0.2449
     18 O           7.3400   -3.8608    0.0000 O.3     1  UNL1       -0.5028
     19 O           6.5256   -3.2914    0.0000 O.3     1  UNL1       -0.5028
     20 O          10.8654   -4.1803    0.0000 O.3     1  UNL1       -0.5032
     21 O           9.0097   -5.0473    0.0000 O.3     1  UNL1       -0.5009
     22 O           5.0148   -0.0902    0.0000 O.3     1  UNL1       -0.4476
     23 O           4.8378   -2.1308    0.0000 O.3     1  UNL1       -0.5009
     24 O           7.9242    1.7496    0.0000 O.3     1  UNL1       -0.5032
     25 O           9.1066    5.0056    0.0000 O.3     1  UNL1       -0.5032
     26 O           7.5755    3.7189    0.0000 O.3     1  UNL1       -0.5009
     27 O           6.8300    0.7494    0.0000 O.3     1  UNL1       -0.5008
     28 O           7.0106    2.7413    0.0000 O.3     1  UNL1       -0.5008
     29 O           5.3758    3.8935    0.0000 O.3     1  UNL1       -0.5032
     30 O           2.5627    1.6382    0.0000 O.3     1  UNL1       -0.4770
     31 O           3.2898    0.0661    0.0000 O.2     1  UNL1       -0.2450
     32 C          12.4118    0.3977    0.0000 C.3     1  UNL1        0.1735
     33 C          11.8949   -0.4748    0.0000 C.3     1  UNL1        0.1830
     34 C          10.9185   -0.2591    0.0000 C.3     1  UNL1        0.1834
     35 C          13.3179    0.9115    0.0000 C.3     1  UNL1        0.1249
     36 C          14.2118    0.3769    0.0000 C.ar    1  UNL1        0.0444
     37 C          10.7441    0.7256    0.0000 C.3     1  UNL1        0.1774
     38 C          14.2118   -0.6231    0.0000 C.ar    1  UNL1        0.0798
     39 C          15.0779   -1.1231    0.0000 C.ar    1  UNL1        0.0462
     40 C          13.3179   -1.1578    0.0000 C.2     1  UNL1        0.3408
     41 C          15.0779    0.8769    0.0000 C.ar    1  UNL1        0.1687
     42 C           9.8041    1.0669    0.0000 C.3     1  UNL1        0.1333
     43 C          14.5900   -2.0122    0.0000 C.ar    1  UNL1        0.0458
     44 C          15.9439   -0.6231    0.0000 C.ar    1  UNL1        0.1708
     45 C          13.6699   -2.4385    0.0000 C.ar    1  UNL1        0.0740
     46 C          12.6762   -2.2361    0.0000 C.2     1  UNL1        0.3405
     47 C          15.9439    0.3769    0.0000 C.ar    1  UNL1        0.2016
     48 C           9.3492   -0.9922    0.0000 C.2     1  UNL1        0.3405
     49 C          15.3556   -2.5796    0.0000 C.ar    1  UNL1        0.1708
     50 C          13.6079   -3.3895    0.0000 C.ar    1  UNL1       -0.0017
     51 C           9.2628   -1.9885    0.0000 C.ar    1  UNL1        0.0740
     52 C          15.2586   -3.5277    0.0000 C.ar    1  UNL1        0.2012
     53 C          11.3353    2.3536    0.0000 C.2     1  UNL1        0.3399
     54 C          14.3940   -3.9284    0.0000 C.ar    1  UNL1        0.1628
     55 C           8.3568   -2.4118    0.0000 C.ar    1  UNL1        0.0458
     56 C           8.5297   -0.4193    0.0000 C.2     1  UNL1        0.3401
     57 C           7.5372   -1.8388    0.0000 C.ar    1  UNL1        0.0458
     58 C           7.6237   -0.8426    0.0000 C.ar    1  UNL1        0.0740
     59 C          10.1256   -2.5721    0.0000 C.ar    1  UNL1       -0.0017
     60 C          10.3953    2.6950    0.0000 C.ar    1  UNL1        0.0661
     61 C           8.2508   -3.4480    0.0000 C.ar    1  UNL1        0.1708
     62 C           6.6005   -2.2942    0.0000 C.ar    1  UNL1        0.1708
     63 C           6.7793   -0.2327    0.0000 C.ar    1  UNL1       -0.0009
     64 C          10.0436   -3.6105    0.0000 C.ar    1  UNL1        0.1628
     65 C           9.0999   -4.0514    0.0000 C.ar    1  UNL1        0.2012
     66 C           5.8322   -0.6663    0.0000 C.ar    1  UNL1        0.1743
     67 C           5.7422   -1.7040    0.0000 C.ar    1  UNL1        0.2021
     68 C          10.2209    3.6796    0.0000 C.ar    1  UNL1       -0.0023
     69 C           9.6297    2.0516    0.0000 C.ar    1  UNL1       -0.0023
     70 C           8.6898    2.3929    0.0000 C.ar    1  UNL1        0.1628
     71 C           9.2810    4.0210    0.0000 C.ar    1  UNL1        0.1628
     72 C           8.5154    3.3776    0.0000 C.ar    1  UNL1        0.2006
     73 C           5.1051    0.9057    0.0000 C.ar    1  UNL1        0.1876
     74 C           4.2877    1.4819    0.0000 C.ar    1  UNL1        0.1083
     75 C           6.0127    1.3255    0.0000 C.ar    1  UNL1        0.2060
     76 C           4.3780    2.4778    0.0000 C.ar    1  UNL1        0.0013
     77 C           6.1029    2.3215    0.0000 C.ar    1  UNL1        0.2044
     78 C           5.2856    2.8976    0.0000 C.ar    1  UNL1        0.1630
     79 C           3.3801    1.0621    0.0000 C.2     1  UNL1        0.3406
     80 H          11.8165    1.0044    0.0000 H       1  UNL1        0.0803
     81 H          11.6482    0.0940    0.0000 H       1  UNL1        0.0812
     82 H          11.5320    0.3292    0.0000 H       1  UNL1        0.0812
     83 H          13.0141    1.4520    0.0000 H       1  UNL1        0.0684
     84 H          10.6360    1.3361    0.0000 H       1  UNL1        0.0808
     85 H          10.0157    1.6497    0.0000 H       1  UNL1        0.0736
     86 H           9.2214    1.2785    0.0000 H       1  UNL1        0.0736
     87 H          13.5241    2.3122    0.0000 H       1  UNL1        0.2104
     88 H          13.0503   -3.6606    0.0000 H       1  UNL1        0.0664
     89 H          15.6148    2.1869    0.0000 H       1  UNL1        0.2923
     90 H          17.3469   -0.8131    0.0000 H       1  UNL1        0.2923
     91 H          17.3469    0.5669    0.0000 H       1  UNL1        0.2924
     92 H          10.6843   -2.3032    0.0000 H       1  UNL1        0.0664
     93 H          16.7709   -2.5421    0.0000 H       1  UNL1        0.2923
     94 H           6.8400    0.3844    0.0000 H       1  UNL1        0.0664
     95 H          16.0136   -4.7254    0.0000 H       1  UNL1        0.2924
     96 H          13.7496   -5.1890    0.0000 H       1  UNL1        0.2923
     97 H          10.6956    4.0785    0.0000 H       1  UNL1        0.0663
     98 H           9.7379    1.4411    0.0000 H       1  UNL1        0.0663
     99 H           7.2793   -4.4778    0.0000 H       1  UNL1        0.2923
    100 H           5.9669   -3.5604    0.0000 H       1  UNL1        0.2923
    101 H          10.8142   -4.7982    0.0000 H       1  UNL1        0.2923
    102 H           9.5164   -5.4045    0.0000 H       1  UNL1        0.2924
    103 H           4.3283   -1.7775    0.0000 H       1  UNL1        0.2924
    104 H           7.3415    1.9612    0.0000 H       1  UNL1        0.2923
    105 H           9.5812    5.4045    0.0000 H       1  UNL1        0.2923
    106 H           7.4673    4.3294    0.0000 H       1  UNL1        0.2924
    107 H           3.8712    2.8350    0.0000 H       1  UNL1        0.0665
    108 H           7.3928    1.0097    0.0000 H       1  UNL1        0.2924
    109 H           7.0665    3.3587    0.0000 H       1  UNL1        0.2924
    110 H           5.9385    4.1538    0.0000 H       1  UNL1        0.2923
    111 H           2.0000    1.3779    0.0000 H       1  UNL1        0.2954
@<TRIPOS>BOND
     1     1    32    1
     2     1    40    1
     3     2    33    1
     4     2    46    1
     5     3    34    1
     6     3    48    1
     7    35     4    1
     8     4    87    1
     9    37     5    1
    10     5    53    1
    11     6    42    1
    12     6    56    1
    13     7    41    1
    14     7    89    1
    15     8    40    2
    16     9    44    1
    17     9    90    1
    18    10    47    1
    19    10    91    1
    20    11    46    2
    21    12    49    1
    22    12    93    1
    23    13    48    2
    24    14    52    1
    25    14    95    1
    26    15    54    1
    27    15    96    1
    28    16    53    2
    29    17    56    2
    30    18    61    1
    31    18    99    1
    32    19    62    1
    33    19   100    1
    34    20    64    1
    35    20   101    1
    36    21    65    1
    37    21   102    1
    38    22    66    1
    39    22    73    1
    40    23    67    1
    41    23   103    1
    42    24    70    1
    43    24   104    1
    44    25    71    1
    45    25   105    1
    46    26    72    1
    47    26   106    1
    48    27    75    1
    49    27   108    1
    50    28    77    1
    51    28   109    1
    52    29    78    1
    53    29   110    1
    54    30    79    1
    55    30   111    1
    56    31    79    2
    57    32    33    1
    58    32    35    1
    59    32    80    1
    60    33    34    1
    61    33    81    1
    62    34    37    1
    63    34    82    1
    64    35    36    1
    65    35    83    1
    66    36    38   ar
    67    36    41   ar
    68    37    42    1
    69    37    84    1
    70    38    39   ar
    71    38    40    1
    72    39    43    1
    73    39    44   ar
    74    41    47   ar
    75    42    85    1
    76    42    86    1
    77    43    45   ar
    78    43    49   ar
    79    44    47   ar
    80    45    46    1
    81    45    50   ar
    82    48    51    1
    83    49    52   ar
    84    50    54   ar
    85    50    88    1
    86    51    55   ar
    87    51    59   ar
    88    52    54   ar
    89    53    60    1
    90    55    57    1
    91    55    61   ar
    92    56    58    1
    93    57    58   ar
    94    57    62   ar
    95    58    63   ar
    96    59    64   ar
    97    59    92    1
    98    60    68   ar
    99    60    69   ar
   100    61    65   ar
   101    62    67   ar
   102    63    66   ar
   103    63    94    1
   104    64    65   ar
   105    66    67   ar
   106    68    71   ar
   107    68    97    1
   108    69    70   ar
   109    69    98    1
   110    70    72   ar
   111    71    72   ar
   112    73    74   ar
   113    73    75   ar
   114    74    76   ar
   115    74    79    1
   116    75    77   ar
   117    76    78   ar
   118    76   107    1
   119    77    78   ar
