@<TRIPOS>MOLECULE
IMPHY016623
 22 21 0 0 0
SMALL
GASTEIGER

@<TRIPOS>ATOM
      1 O           2.8660   -0.2500    0.0000 O.3     1  UNL1       -0.4679
      2 O           8.0622   -0.2500    0.0000 O.3     1  UNL1       -0.4625
      3 O           6.3301   -1.2500    0.0000 O.2     1  UNL1       -0.2851
      4 O           3.7320    1.2500    0.0000 O.2     1  UNL1       -0.2509
      5 O           7.1962    1.2500    0.0000 O.2     1  UNL1       -0.2417
      6 C           5.4641    0.2500    0.0000 C.3     1  UNL1        0.0271
      7 C           4.5981   -0.2500    0.0000 C.3     1  UNL1        0.0521
      8 C           6.3301   -0.2500    0.0000 C.2     1  UNL1        0.2397
      9 C           3.7320    0.2500    0.0000 C.2     1  UNL1        0.3072
     10 C           7.1962    0.2500    0.0000 C.2     1  UNL1        0.3747
     11 C           2.0000    0.2500    0.0000 C.3     1  UNL1        0.0817
     12 C           8.9282    0.2500    0.0000 C.3     1  UNL1        0.0821
     13 H           5.8626    0.7249    0.0000 H       1  UNL1        0.0353
     14 H           5.0656    0.7249    0.0000 H       1  UNL1        0.0353
     15 H           4.1996   -0.7249    0.0000 H       1  UNL1        0.0382
     16 H           4.9966   -0.7249    0.0000 H       1  UNL1        0.0382
     17 H           2.3100    0.7869    0.0000 H       1  UNL1        0.0661
     18 H           1.4631    0.5600    0.0000 H       1  UNL1        0.0661
     19 H           1.6900   -0.2869    0.0000 H       1  UNL1        0.0661
     20 H           9.2382   -0.2869    0.0000 H       1  UNL1        0.0661
     21 H           9.4651    0.5600    0.0000 H       1  UNL1        0.0661
     22 H           8.6182    0.7869    0.0000 H       1  UNL1        0.0661
@<TRIPOS>BOND
     1     1     9    1
     2     1    11    1
     3     2    10    1
     4     2    12    1
     5     3     8    2
     6     4     9    2
     7     5    10    2
     8     6     7    1
     9     6     8    1
    10     6    13    1
    11     6    14    1
    12     7     9    1
    13     7    15    1
    14     7    16    1
    15     8    10    1
    16    11    17    1
    17    11    18    1
    18    11    19    1
    19    12    20    1
    20    12    21    1
    21    12    22    1
