@<TRIPOS>MOLECULE
IMPHY015828
 15 14 0 0 0
SMALL
GASTEIGER

@<TRIPOS>ATOM
      1 O           2.8660    0.7500    0.0000 O.3     1  UNL1       -0.4677
      2 O           3.7320   -0.7500    0.0000 O.2     1  UNL1       -0.2505
      3 C           4.5981    0.7500    0.0000 C.3     1  UNL1        0.0629
      4 C           3.7320    0.2500    0.0000 C.2     1  UNL1        0.3106
      5 C           5.4641    0.2500    0.0000 C.2     1  UNL1       -0.0806
      6 C           2.0000    0.2500    0.0000 C.3     1  UNL1        0.0817
      7 C           6.3301    0.7500    0.0000 C.2     1  UNL1       -0.1021
      8 H           4.9966    1.2250    0.0000 H       1  UNL1        0.0420
      9 H           4.1996    1.2250    0.0000 H       1  UNL1        0.0420
     10 H           5.4641   -0.3700    0.0000 H       1  UNL1        0.0572
     11 H           1.6900    0.7869    0.0000 H       1  UNL1        0.0661
     12 H           1.4631   -0.0600    0.0000 H       1  UNL1        0.0661
     13 H           2.3100   -0.2869    0.0000 H       1  UNL1        0.0661
     14 H           6.8671    0.4400    0.0000 H       1  UNL1        0.0532
     15 H           6.3301    1.3700    0.0000 H       1  UNL1        0.0532
@<TRIPOS>BOND
     1     1     4    1
     2     1     6    1
     3     2     4    2
     4     3     4    1
     5     3     5    1
     6     3     8    1
     7     3     9    1
     8     5     7    2
     9     5    10    1
    10     6    11    1
    11     6    12    1
    12     6    13    1
    13     7    14    1
    14     7    15    1
