@<TRIPOS>MOLECULE
IMPHY013712
 49 51 0 0 0
SMALL
GASTEIGER

@<TRIPOS>ATOM
      1 O           8.0247    2.2085    0.0000 O.3     1  UNL1       -0.3686
      2 O           6.9427    4.5516    0.0000 O.2     1  UNL1       -0.2892
      3 O           2.2788   -2.7915    0.0000 O.3     1  UNL1       -0.4229
      4 O           2.0000   -4.5516    0.0000 O.2     1  UNL1       -0.2449
      5 N           4.8198    1.7963    0.0000 N.pl3   1  UNL1       -0.3327
      6 C           7.2157    2.7963    0.0000 C.3     1  UNL1        0.1332
      7 C           5.6859    2.2963    0.0000 C.2     1  UNL1        0.0162
      8 C           6.6321    1.9916    0.0000 C.3     1  UNL1        0.0219
      9 C           5.6859    3.2963    0.0000 C.2     1  UNL1        0.0149
     10 C           4.8198    3.7963    0.0000 C.3     1  UNL1       -0.0214
     11 C           3.9538    2.2963    0.0000 C.3     1  UNL1        0.0122
     12 C           6.6321    3.6010    0.0000 C.2     1  UNL1        0.1923
     13 C           3.9538    3.2963    0.0000 C.3     1  UNL1       -0.0331
     14 C           4.8198    0.7963    0.0000 C.3     1  UNL1        0.0122
     15 C           8.0247    3.3841    0.0000 C.3     1  UNL1       -0.0282
     16 C           3.9538    0.2963    0.0000 C.3     1  UNL1       -0.0337
     17 C           3.9538   -0.7037    0.0000 C.3     1  UNL1       -0.0296
     18 C           7.9202    1.2140    0.0000 C.3     1  UNL1        0.0377
     19 C           3.0878   -1.2037    0.0000 C.2     1  UNL1       -0.0414
     20 C           3.0878   -2.2037    0.0000 C.2     1  UNL1        0.1285
     21 C           3.8968   -2.7915    0.0000 C.2     1  UNL1       -0.0098
     22 C           3.5878   -3.7425    0.0000 C.2     1  UNL1        0.0374
     23 C           2.5878   -3.7425    0.0000 C.2     1  UNL1        0.3402
     24 C           4.1756   -4.5516    0.0000 C.3     1  UNL1       -0.0328
     25 H           6.3810    1.4247    0.0000 H       1  UNL1        0.0358
     26 H           7.1695    1.6824    0.0000 H       1  UNL1        0.0358
     27 H           5.2184    4.2712    0.0000 H       1  UNL1        0.0315
     28 H           4.4213    4.2712    0.0000 H       1  UNL1        0.0315
     29 H           3.3432    2.4040    0.0000 H       1  UNL1        0.0464
     30 H           3.7418    1.7137    0.0000 H       1  UNL1        0.0464
     31 H           3.7418    3.8789    0.0000 H       1  UNL1        0.0283
     32 H           3.3432    3.1886    0.0000 H       1  UNL1        0.0283
     33 H           5.0319    0.2137    0.0000 H       1  UNL1        0.0464
     34 H           5.4304    0.9040    0.0000 H       1  UNL1        0.0464
     35 H           8.3891    2.8825    0.0000 H       1  UNL1        0.0262
     36 H           8.5263    3.7485    0.0000 H       1  UNL1        0.0262
     37 H           7.6603    3.8857    0.0000 H       1  UNL1        0.0262
     38 H           3.7418    0.8789    0.0000 H       1  UNL1        0.0283
     39 H           3.3432    0.1886    0.0000 H       1  UNL1        0.0283
     40 H           4.1659   -1.2863    0.0000 H       1  UNL1        0.0309
     41 H           4.5644   -0.5960    0.0000 H       1  UNL1        0.0309
     42 H           7.3036    1.2788    0.0000 H       1  UNL1        0.0524
     43 H           7.8554    0.5974    0.0000 H       1  UNL1        0.0524
     44 H           8.5368    1.1492    0.0000 H       1  UNL1        0.0524
     45 H           2.5508   -0.8937    0.0000 H       1  UNL1        0.0608
     46 H           4.4865   -2.5999    0.0000 H       1  UNL1        0.0659
     47 H           3.6740   -4.9160    0.0000 H       1  UNL1        0.0280
     48 H           4.5400   -5.0531    0.0000 H       1  UNL1        0.0280
     49 H           4.6772   -4.1871    0.0000 H       1  UNL1        0.0280
@<TRIPOS>BOND
     1     1     6    1
     2     1    18    1
     3     2    12    2
     4     3    20    1
     5     3    23    1
     6     4    23    2
     7     5     7    1
     8     5    11    1
     9     5    14    1
    10     6     8    1
    11     6    12    1
    12     6    15    1
    13     7     8    1
    14     7     9    2
    15     8    25    1
    16     8    26    1
    17     9    10    1
    18     9    12    1
    19    10    13    1
    20    10    27    1
    21    10    28    1
    22    11    13    1
    23    11    29    1
    24    11    30    1
    25    13    31    1
    26    13    32    1
    27    14    16    1
    28    14    33    1
    29    14    34    1
    30    15    35    1
    31    15    36    1
    32    15    37    1
    33    16    17    1
    34    16    38    1
    35    16    39    1
    36    17    19    1
    37    17    40    1
    38    17    41    1
    39    18    42    1
    40    18    43    1
    41    18    44    1
    42    19    20    2
    43    19    45    1
    44    20    21    1
    45    21    22    2
    46    21    46    1
    47    22    23    1
    48    22    24    1
    49    24    47    1
    50    24    48    1
    51    24    49    1
