@<TRIPOS>MOLECULE
IMPHY002459
 45 48 0 0 0
SMALL
GASTEIGER

@<TRIPOS>ATOM
      1 O           3.7782    1.7468    0.0000 O.3     1  UNL1       -0.4908
      2 O           5.5442    2.7846    0.0000 O.3     1  UNL1       -0.4914
      3 O           5.5132   -3.2751    0.0000 O.2     1  UNL1       -0.2759
      4 N           6.3903   -1.7816    0.0000 N.am    1  UNL1       -0.2940
      5 C           5.5321   -1.2846    0.0000 C.3     1  UNL1        0.0561
      6 C           5.5321   -0.2846    0.0000 C.ar    1  UNL1       -0.0120
      7 C           4.6660   -1.7846    0.0000 C.3     1  UNL1       -0.0042
      8 C           6.4421    0.2222    0.0000 C.ar    1  UNL1       -0.0367
      9 C           7.2558   -1.2974    0.0000 C.3     1  UNL1        0.0193
     10 C           4.6660    0.2154    0.0000 C.ar    1  UNL1        0.0329
     11 C           7.2814   -0.3060    0.0000 C.3     1  UNL1       -0.0113
     12 C           3.8000   -1.2846    0.0000 C.ar    1  UNL1       -0.0375
     13 C           3.8000   -0.2846    0.0000 C.ar    1  UNL1       -0.0107
     14 C           4.6500    1.2569    0.0000 C.ar    1  UNL1        0.1695
     15 C           6.4501    1.2638    0.0000 C.ar    1  UNL1       -0.0127
     16 C           6.3829   -2.7816    0.0000 C.2     1  UNL1        0.2130
     17 C           5.5480    1.7846    0.0000 C.ar    1  UNL1        0.1624
     18 C           2.9061   -1.8193    0.0000 C.ar    1  UNL1       -0.0579
     19 C           2.9061    0.2500    0.0000 C.ar    1  UNL1       -0.0536
     20 C           2.0000   -1.3055    0.0000 C.ar    1  UNL1       -0.0615
     21 C           2.0000   -0.2638    0.0000 C.ar    1  UNL1       -0.0612
     22 C           7.2452   -3.2879    0.0000 C.3     1  UNL1        0.0124
     23 C           3.7667    2.7468    0.0000 C.3     1  UNL1        0.0790
     24 C           6.4082    3.2879    0.0000 C.3     1  UNL1        0.0790
     25 H           5.5315   -2.1346    0.0000 H       1  UNL1        0.0554
     26 H           4.2675   -2.2596    0.0000 H       1  UNL1        0.0335
     27 H           5.0646   -2.2596    0.0000 H       1  UNL1        0.0335
     28 H           7.4575   -1.8837    0.0000 H       1  UNL1        0.0468
     29 H           7.8685   -1.2030    0.0000 H       1  UNL1        0.0468
     30 H           7.8885   -0.4319    0.0000 H       1  UNL1        0.0328
     31 H           7.5131    0.2690    0.0000 H       1  UNL1        0.0328
     32 H           6.9882    1.5717    0.0000 H       1  UNL1        0.0658
     33 H           2.9132   -2.4393    0.0000 H       1  UNL1        0.0620
     34 H           2.9132    0.8700    0.0000 H       1  UNL1        0.0624
     35 H           1.4643   -1.6175    0.0000 H       1  UNL1        0.0618
     36 H           1.4643    0.0482    0.0000 H       1  UNL1        0.0618
     37 H           6.9312   -3.8226    0.0000 H       1  UNL1        0.0323
     38 H           7.7798   -3.6019    0.0000 H       1  UNL1        0.0323
     39 H           7.5591   -2.7533    0.0000 H       1  UNL1        0.0323
     40 H           4.3866    2.7539    0.0000 H       1  UNL1        0.0660
     41 H           3.7595    3.3667    0.0000 H       1  UNL1        0.0660
     42 H           3.1467    2.7396    0.0000 H       1  UNL1        0.0660
     43 H           6.7203    2.7522    0.0000 H       1  UNL1        0.0660
     44 H           6.9440    3.6000    0.0000 H       1  UNL1        0.0660
     45 H           6.0962    3.8237    0.0000 H       1  UNL1        0.0660
@<TRIPOS>BOND
     1     1    14    1
     2     1    23    1
     3     2    17    1
     4     2    24    1
     5     3    16    2
     6     4     5    1
     7     4     9    1
     8     4    16   am
     9     5     6    1
    10     5     7    1
    11     5    25    1
    12     6     8   ar
    13     6    10   ar
    14     7    12    1
    15     7    26    1
    16     7    27    1
    17     8    11    1
    18     8    15   ar
    19     9    11    1
    20     9    28    1
    21     9    29    1
    22    10    13    1
    23    10    14   ar
    24    11    30    1
    25    11    31    1
    26    12    13   ar
    27    12    18   ar
    28    13    19   ar
    29    14    17   ar
    30    15    17   ar
    31    15    32    1
    32    16    22    1
    33    18    20   ar
    34    18    33    1
    35    19    21   ar
    36    19    34    1
    37    20    21   ar
    38    20    35    1
    39    21    36    1
    40    22    37    1
    41    22    38    1
    42    22    39    1
    43    23    40    1
    44    23    41    1
    45    23    42    1
    46    24    43    1
    47    24    44    1
    48    24    45    1
