@<TRIPOS>MOLECULE
IMPHY015516
 41 42 0 0 0
SMALL
GASTEIGER

@<TRIPOS>ATOM
      1 O           4.9886   -1.3144    0.0000 O.3     1  UNL1       -0.4575
      2 O           3.4188   -0.5824    0.0000 O.2     1  UNL1       -0.2453
      3 C           6.7839    0.1839    0.0000 C.3     1  UNL1        0.0104
      4 C           6.3061    2.1325    0.0000 C.3     1  UNL1       -0.0232
      5 C           7.0427    1.1499    0.0000 C.3     1  UNL1       -0.0319
      6 C           5.4112   -0.4081    0.0000 C.3     1  UNL1        0.1095
      7 C           8.1828   -0.3249    0.0000 C.3     1  UNL1       -0.0435
      8 C           5.0692    0.5316    0.0000 C.3     1  UNL1       -0.0118
      9 C           8.4417    0.6410    0.0000 C.3     1  UNL1       -0.0490
     10 C           6.5251   -0.7820    0.0000 C.3     1  UNL1       -0.0557
     11 C           6.4106    3.1270    0.0000 C.3     1  UNL1       -0.0589
     12 C           5.3926    2.5392    0.0000 C.3     1  UNL1       -0.0589
     13 C           3.9924   -1.4015    0.0000 C.2     1  UNL1        0.3348
     14 C           3.5698   -2.3078    0.0000 C.2     1  UNL1        0.0293
     15 C           4.1434   -3.1270    0.0000 C.3     1  UNL1       -0.0333
     16 C           2.5736   -2.3950    0.0000 C.2     1  UNL1       -0.0774
     17 C           2.0000   -1.5758    0.0000 C.3     1  UNL1       -0.0461
     18 H           7.2627    1.9709    0.0000 H       1  UNL1        0.0307
     19 H           5.8432   -0.8528    0.0000 H       1  UNL1        0.0740
     20 H           7.9879   -0.9134    0.0000 H       1  UNL1        0.0272
     21 H           8.7768   -0.5027    0.0000 H       1  UNL1        0.0272
     22 H           4.8749    1.1204    0.0000 H       1  UNL1        0.0304
     23 H           4.4834    0.3284    0.0000 H       1  UNL1        0.0304
     24 H           9.0356    0.4633    0.0000 H       1  UNL1        0.0268
     25 H           8.6366    1.2296    0.0000 H       1  UNL1        0.0268
     26 H           5.9262   -0.6215    0.0000 H       1  UNL1        0.0236
     27 H           6.3646   -1.3809    0.0000 H       1  UNL1        0.0236
     28 H           7.1240   -0.9425    0.0000 H       1  UNL1        0.0236
     29 H           7.0272    3.0622    0.0000 H       1  UNL1        0.0235
     30 H           6.4755    3.7436    0.0000 H       1  UNL1        0.0235
     31 H           5.7940    3.1918    0.0000 H       1  UNL1        0.0235
     32 H           5.6447    3.1056    0.0000 H       1  UNL1        0.0235
     33 H           4.8262    2.7914    0.0000 H       1  UNL1        0.0235
     34 H           5.1404    1.9728    0.0000 H       1  UNL1        0.0235
     35 H           3.6355   -3.4826    0.0000 H       1  UNL1        0.0280
     36 H           4.4990   -3.6349    0.0000 H       1  UNL1        0.0280
     37 H           4.6512   -2.7714    0.0000 H       1  UNL1        0.0280
     38 H           2.3116   -2.9569    0.0000 H       1  UNL1        0.0574
     39 H           2.5079   -1.2202    0.0000 H       1  UNL1        0.0272
     40 H           1.6444   -1.0680    0.0000 H       1  UNL1        0.0272
     41 H           1.4921   -1.9315    0.0000 H       1  UNL1        0.0272
@<TRIPOS>BOND
     1     6     1    1
     2     1    13    1
     3     2    13    2
     4     3     4    1
     5     3     6    1
     6     3     7    1
     7     3    10    1
     8     4     5    1
     9     4    11    1
    10     4    12    1
    11     5     8    1
    12     5     9    1
    13     5    18    1
    14     6     8    1
    15     6    19    1
    16     7     9    1
    17     7    20    1
    18     7    21    1
    19     8    22    1
    20     8    23    1
    21     9    24    1
    22     9    25    1
    23    10    26    1
    24    10    27    1
    25    10    28    1
    26    11    29    1
    27    11    30    1
    28    11    31    1
    29    12    32    1
    30    12    33    1
    31    12    34    1
    32    13    14    1
    33    14    15    1
    34    14    16    2
    35    15    35    1
    36    15    36    1
    37    15    37    1
    38    16    17    1
    39    16    38    1
    40    17    39    1
    41    17    40    1
    42    17    41    1
