@<TRIPOS>MOLECULE
IMPHY016770
 46 45 0 0 0
SMALL
GASTEIGER

@<TRIPOS>ATOM
      1 N           2.8660    0.2500    0.0000 N.3     1  UNL1       -0.3083
      2 C           8.0622    0.2500    0.0000 C.3     1  UNL1       -0.0531
      3 C           7.1962    0.7500    0.0000 C.3     1  UNL1       -0.0531
      4 C           8.9282    0.7500    0.0000 C.3     1  UNL1       -0.0531
      5 C           6.3301    0.2500    0.0000 C.3     1  UNL1       -0.0530
      6 C           9.7942    0.2500    0.0000 C.3     1  UNL1       -0.0531
      7 C           5.4641    0.7500    0.0000 C.3     1  UNL1       -0.0519
      8 C          10.6603    0.7500    0.0000 C.3     1  UNL1       -0.0531
      9 C           4.5981    0.2500    0.0000 C.3     1  UNL1       -0.0402
     10 C          11.5263    0.2500    0.0000 C.3     1  UNL1       -0.0533
     11 C           3.7320    0.7500    0.0000 C.3     1  UNL1       -0.0017
     12 C          12.3923    0.7500    0.0000 C.3     1  UNL1       -0.0559
     13 C          13.2583    0.2500    0.0000 C.3     1  UNL1       -0.0653
     14 C           2.0000    0.7500    0.0000 C.3     1  UNL1       -0.0131
     15 C           2.8660   -0.7500    0.0000 C.3     1  UNL1       -0.0131
     16 H           7.6636   -0.2249    0.0000 H       1  UNL1        0.0265
     17 H           8.4607   -0.2249    0.0000 H       1  UNL1        0.0265
     18 H           7.5947    1.2250    0.0000 H       1  UNL1        0.0265
     19 H           6.7976    1.2250    0.0000 H       1  UNL1        0.0265
     20 H           9.3267    1.2250    0.0000 H       1  UNL1        0.0265
     21 H           8.5297    1.2250    0.0000 H       1  UNL1        0.0265
     22 H           5.9316   -0.2249    0.0000 H       1  UNL1        0.0265
     23 H           6.7287   -0.2249    0.0000 H       1  UNL1        0.0265
     24 H           9.3957   -0.2249    0.0000 H       1  UNL1        0.0265
     25 H          10.1928   -0.2249    0.0000 H       1  UNL1        0.0265
     26 H           5.8626    1.2250    0.0000 H       1  UNL1        0.0266
     27 H           5.0656    1.2250    0.0000 H       1  UNL1        0.0266
     28 H          11.0588    1.2250    0.0000 H       1  UNL1        0.0265
     29 H          10.2617    1.2250    0.0000 H       1  UNL1        0.0265
     30 H           4.1996   -0.2249    0.0000 H       1  UNL1        0.0278
     31 H           4.9966   -0.2249    0.0000 H       1  UNL1        0.0278
     32 H          11.1278   -0.2249    0.0000 H       1  UNL1        0.0265
     33 H          11.9248   -0.2249    0.0000 H       1  UNL1        0.0265
     34 H           4.1306    1.2250    0.0000 H       1  UNL1        0.0426
     35 H           3.3335    1.2250    0.0000 H       1  UNL1        0.0426
     36 H          12.7908    1.2250    0.0000 H       1  UNL1        0.0263
     37 H          11.9938    1.2250    0.0000 H       1  UNL1        0.0263
     38 H          12.9483   -0.2869    0.0000 H       1  UNL1        0.0230
     39 H          13.7953   -0.0600    0.0000 H       1  UNL1        0.0230
     40 H          13.5683    0.7869    0.0000 H       1  UNL1        0.0230
     41 H           2.3100    1.2869    0.0000 H       1  UNL1        0.0391
     42 H           1.4631    1.0600    0.0000 H       1  UNL1        0.0391
     43 H           1.6900    0.2131    0.0000 H       1  UNL1        0.0391
     44 H           2.2460   -0.7500    0.0000 H       1  UNL1        0.0391
     45 H           2.8660   -1.3700    0.0000 H       1  UNL1        0.0391
     46 H           3.4860   -0.7500    0.0000 H       1  UNL1        0.0391
@<TRIPOS>BOND
     1     1    11    1
     2     1    14    1
     3     1    15    1
     4     2     3    1
     5     2     4    1
     6     2    16    1
     7     2    17    1
     8     3     5    1
     9     3    18    1
    10     3    19    1
    11     4     6    1
    12     4    20    1
    13     4    21    1
    14     5     7    1
    15     5    22    1
    16     5    23    1
    17     6     8    1
    18     6    24    1
    19     6    25    1
    20     7     9    1
    21     7    26    1
    22     7    27    1
    23     8    10    1
    24     8    28    1
    25     8    29    1
    26     9    11    1
    27     9    30    1
    28     9    31    1
    29    10    12    1
    30    10    32    1
    31    10    33    1
    32    11    34    1
    33    11    35    1
    34    12    13    1
    35    12    36    1
    36    12    37    1
    37    13    38    1
    38    13    39    1
    39    13    40    1
    40    14    41    1
    41    14    42    1
    42    14    43    1
    43    15    44    1
    44    15    45    1
    45    15    46    1
