@<TRIPOS>MOLECULE
IMPHY000253
 44 48 0 0 0
SMALL
GASTEIGER

@<TRIPOS>ATOM
      1 O           9.3729   -3.0309    0.0000 O.3     1  UNL1       -0.4526
      2 O          10.8248   -2.1927    0.0000 O.3     1  UNL1       -0.4526
      3 O           4.6874    2.6283    0.0000 O.3     1  UNL1       -0.4911
      4 O           2.8680    1.5964    0.0000 O.3     1  UNL1       -0.4914
      5 N           7.4070    1.0506    0.0000 N.pl3   1  UNL1       -0.3246
      6 C           8.2730    1.5506    0.0000 C.3     1  UNL1        0.0166
      7 C           7.4070    0.0506    0.0000 C.2     1  UNL1        0.0382
      8 C           9.1390    1.0506    0.0000 C.3     1  UNL1       -0.0112
      9 C           6.5130    1.5853    0.0000 C.3     1  UNL1        0.0414
     10 C           8.2730   -0.4494    0.0000 C.ar    1  UNL1        0.0029
     11 C           9.1390    0.0506    0.0000 C.ar    1  UNL1       -0.0333
     12 C           5.6070    1.0714    0.0000 C.ar    1  UNL1        0.0222
     13 C           5.6070    0.0298    0.0000 C.ar    1  UNL1       -0.0149
     14 C           6.5130   -0.4840    0.0000 C.2     1  UNL1       -0.0325
     15 C           8.2570   -1.4909    0.0000 C.ar    1  UNL1       -0.0070
     16 C          10.0490   -0.4562    0.0000 C.ar    1  UNL1       -0.0123
     17 C           4.6758    1.6284    0.0000 C.ar    1  UNL1        0.1667
     18 C           9.1550   -2.0186    0.0000 C.ar    1  UNL1        0.1669
     19 C          10.0571   -1.4978    0.0000 C.ar    1  UNL1        0.1665
     20 C           4.6758   -0.5271    0.0000 C.ar    1  UNL1       -0.0505
     21 C           3.7320    1.0931    0.0000 C.ar    1  UNL1        0.1618
     22 C           3.7320    0.0081    0.0000 C.ar    1  UNL1       -0.0157
     23 C          10.4028   -3.1383    0.0000 C.3     1  UNL1        0.2332
     24 C           3.8272    3.1383    0.0000 C.3     1  UNL1        0.0790
     25 C           2.0000    1.0998    0.0000 C.3     1  UNL1        0.0790
     26 H           8.6716    2.0256    0.0000 H       1  UNL1        0.0467
     27 H           7.8745    2.0256    0.0000 H       1  UNL1        0.0467
     28 H           9.7496    0.9430    0.0000 H       1  UNL1        0.0329
     29 H           9.3511    1.6332    0.0000 H       1  UNL1        0.0329
     30 H           6.9176    2.0551    0.0000 H       1  UNL1        0.0514
     31 H           6.1194    2.0643    0.0000 H       1  UNL1        0.0514
     32 H           6.5202   -1.1040    0.0000 H       1  UNL1        0.0642
     33 H           7.7165   -1.7947    0.0000 H       1  UNL1        0.0662
     34 H          10.5824   -0.1400    0.0000 H       1  UNL1        0.0658
     35 H           4.6830   -1.1471    0.0000 H       1  UNL1        0.0625
     36 H           3.1963   -0.3039    0.0000 H       1  UNL1        0.0655
     37 H          10.2741   -3.7448    0.0000 H       1  UNL1        0.1166
     38 H          10.9924   -3.3300    0.0000 H       1  UNL1        0.1166
     39 H           4.1434    3.6716    0.0000 H       1  UNL1        0.0660
     40 H           3.2939    3.4544    0.0000 H       1  UNL1        0.0660
     41 H           3.5110    2.6050    0.0000 H       1  UNL1        0.0660
     42 H           1.6921    1.6379    0.0000 H       1  UNL1        0.0660
     43 H           1.4619    0.7919    0.0000 H       1  UNL1        0.0660
     44 H           2.3079    0.5617    0.0000 H       1  UNL1        0.0660
@<TRIPOS>BOND
     1     1    18    1
     2     1    23    1
     3     2    19    1
     4     2    23    1
     5     3    17    1
     6     3    24    1
     7     4    21    1
     8     4    25    1
     9     5     6    1
    10     5     7    1
    11     5     9    1
    12     6     8    1
    13     6    26    1
    14     6    27    1
    15     7    10    1
    16     7    14    2
    17     8    11    1
    18     8    28    1
    19     8    29    1
    20     9    12    1
    21     9    30    1
    22     9    31    1
    23    10    11   ar
    24    10    15   ar
    25    11    16   ar
    26    12    13   ar
    27    12    17   ar
    28    13    14    1
    29    13    20   ar
    30    14    32    1
    31    15    18   ar
    32    15    33    1
    33    16    19   ar
    34    16    34    1
    35    17    21   ar
    36    18    19   ar
    37    20    22   ar
    38    20    35    1
    39    21    22   ar
    40    22    36    1
    41    23    37    1
    42    23    38    1
    43    24    39    1
    44    24    40    1
    45    24    41    1
    46    25    42    1
    47    25    43    1
    48    25    44    1
