@<TRIPOS>MOLECULE
IMPHY001245
 58 59 0 0 0
SMALL
GASTEIGER

@<TRIPOS>ATOM
      1 O           6.8671    2.4050    0.0000 O.3     1  UNL1       -0.5064
      2 O           3.4030    2.4050    0.0000 O.3     1  UNL1       -0.5064
      3 O           4.2690   -5.0950    0.0000 O.3     1  UNL1       -0.5031
      4 O           2.5369   -4.0950    0.0000 O.3     1  UNL1       -0.5033
      5 C           4.2690   -1.0950    0.0000 C.3     1  UNL1       -0.0236
      6 C           5.1350   -0.5950    0.0000 C.3     1  UNL1       -0.0235
      7 C           4.2690   -2.0950    0.0000 C.ar    1  UNL1       -0.0431
      8 C           5.1350    0.4050    0.0000 C.ar    1  UNL1       -0.0401
      9 C           5.1350   -3.5950    0.0000 C.ar    1  UNL1        0.0017
     10 C           5.1350   -2.5950    0.0000 C.ar    1  UNL1       -0.0514
     11 C           5.1350    2.4050    0.0000 C.ar    1  UNL1        0.0391
     12 C           6.0010    0.9050    0.0000 C.ar    1  UNL1       -0.0165
     13 C           4.2690    0.9050    0.0000 C.ar    1  UNL1       -0.0165
     14 C           3.4030   -2.5950    0.0000 C.ar    1  UNL1       -0.0133
     15 C           6.0010    1.9050    0.0000 C.ar    1  UNL1        0.1240
     16 C           4.2690    1.9050    0.0000 C.ar    1  UNL1        0.1240
     17 C           6.0010   -4.0950    0.0000 C.3     1  UNL1       -0.0057
     18 C           4.2690   -4.0950    0.0000 C.ar    1  UNL1        0.1618
     19 C           5.1350    3.4050    0.0000 C.3     1  UNL1       -0.0023
     20 C           3.4030   -3.5950    0.0000 C.ar    1  UNL1        0.1588
     21 C           6.8671   -3.5950    0.0000 C.2     1  UNL1       -0.0809
     22 C           6.0010    3.9050    0.0000 C.2     1  UNL1       -0.0807
     23 C           7.7331   -4.0950    0.0000 C.2     1  UNL1       -0.0793
     24 C           6.0010    4.9050    0.0000 C.2     1  UNL1       -0.0793
     25 C           8.5991   -3.5950    0.0000 C.3     1  UNL1       -0.0440
     26 C           7.7331   -5.0950    0.0000 C.3     1  UNL1       -0.0440
     27 C           6.8671    5.4050    0.0000 C.3     1  UNL1       -0.0440
     28 C           5.1350    5.4050    0.0000 C.3     1  UNL1       -0.0440
     29 H           4.0569   -0.5124    0.0000 H       1  UNL1        0.0316
     30 H           3.6584   -1.2027    0.0000 H       1  UNL1        0.0316
     31 H           5.3471   -1.1776    0.0000 H       1  UNL1        0.0316
     32 H           5.7456   -0.4873    0.0000 H       1  UNL1        0.0316
     33 H           5.6720   -2.2850    0.0000 H       1  UNL1        0.0624
     34 H           6.5380    0.5950    0.0000 H       1  UNL1        0.0657
     35 H           3.7320    0.5950    0.0000 H       1  UNL1        0.0657
     36 H           2.8660   -2.2850    0.0000 H       1  UNL1        0.0658
     37 H           5.6025   -4.5700    0.0000 H       1  UNL1        0.0357
     38 H           6.3996   -4.5700    0.0000 H       1  UNL1        0.0357
     39 H           4.9230    3.9876    0.0000 H       1  UNL1        0.0358
     40 H           4.5244    3.2973    0.0000 H       1  UNL1        0.0358
     41 H           6.8671   -2.9750    0.0000 H       1  UNL1        0.0575
     42 H           6.5380    3.5950    0.0000 H       1  UNL1        0.0575
     43 H           7.4040    2.0950    0.0000 H       1  UNL1        0.2921
     44 H           2.8660    2.0950    0.0000 H       1  UNL1        0.2921
     45 H           3.7320   -5.4050    0.0000 H       1  UNL1        0.2923
     46 H           2.0000   -3.7850    0.0000 H       1  UNL1        0.2923
     47 H           8.9091   -4.1319    0.0000 H       1  UNL1        0.0274
     48 H           9.1360   -3.2850    0.0000 H       1  UNL1        0.0274
     49 H           8.2891   -3.0581    0.0000 H       1  UNL1        0.0274
     50 H           7.1131   -5.0950    0.0000 H       1  UNL1        0.0274
     51 H           7.7331   -5.7150    0.0000 H       1  UNL1        0.0274
     52 H           8.3531   -5.0950    0.0000 H       1  UNL1        0.0274
     53 H           5.4450    5.9419    0.0000 H       1  UNL1        0.0274
     54 H           4.5981    5.7150    0.0000 H       1  UNL1        0.0274
     55 H           4.8250    4.8681    0.0000 H       1  UNL1        0.0274
     56 H           7.1771    4.8681    0.0000 H       1  UNL1        0.0274
     57 H           7.4040    5.7150    0.0000 H       1  UNL1        0.0274
     58 H           6.5571    5.9419    0.0000 H       1  UNL1        0.0274
@<TRIPOS>BOND
     1     1    15    1
     2     1    43    1
     3     2    16    1
     4     2    44    1
     5     3    18    1
     6     3    45    1
     7     4    20    1
     8     4    46    1
     9     5     6    1
    10     5     7    1
    11     5    29    1
    12     5    30    1
    13     6     8    1
    14     6    31    1
    15     6    32    1
    16     7    10   ar
    17     7    14   ar
    18     8    12   ar
    19     8    13   ar
    20     9    10   ar
    21     9    17    1
    22     9    18   ar
    23    10    33    1
    24    11    15   ar
    25    11    16   ar
    26    11    19    1
    27    12    15   ar
    28    12    34    1
    29    13    16   ar
    30    13    35    1
    31    14    20   ar
    32    14    36    1
    33    17    21    1
    34    17    37    1
    35    17    38    1
    36    18    20   ar
    37    19    22    1
    38    19    39    1
    39    19    40    1
    40    21    23    2
    41    21    41    1
    42    22    24    2
    43    22    42    1
    44    23    25    1
    45    23    26    1
    46    24    27    1
    47    24    28    1
    48    25    47    1
    49    25    48    1
    50    25    49    1
    51    26    50    1
    52    26    51    1
    53    26    52    1
    54    27    56    1
    55    27    57    1
    56    27    58    1
    57    28    53    1
    58    28    54    1
    59    28    55    1
