@<TRIPOS>MOLECULE
IMPHY008894
 54 53 0 0 0
SMALL
GASTEIGER

@<TRIPOS>ATOM
      1 O          14.9904   -1.0600    0.0000 O.2     1  UNL1       -0.2761
      2 N          14.1244    0.4400    0.0000 N.am    1  UNL1       -0.3155
      3 C           7.1962    0.4400    0.0000 C.3     1  UNL1       -0.0531
      4 C           6.3301   -0.0600    0.0000 C.3     1  UNL1       -0.0531
      5 C           8.0622   -0.0600    0.0000 C.3     1  UNL1       -0.0531
      6 C           5.4641    0.4400    0.0000 C.3     1  UNL1       -0.0530
      7 C           8.9282    0.4400    0.0000 C.3     1  UNL1       -0.0531
      8 C           4.5981   -0.0600    0.0000 C.3     1  UNL1       -0.0528
      9 C           9.7942   -0.0600    0.0000 C.3     1  UNL1       -0.0531
     10 C           3.7320    0.4400    0.0000 C.3     1  UNL1       -0.0507
     11 C          10.6603    0.4400    0.0000 C.3     1  UNL1       -0.0530
     12 C           2.8660   -0.0600    0.0000 C.3     1  UNL1       -0.0467
     13 C          11.5263   -0.0600    0.0000 C.3     1  UNL1       -0.0516
     14 C          12.3923    0.4400    0.0000 C.3     1  UNL1       -0.0374
     15 C           2.0000    0.4400    0.0000 C.3     1  UNL1       -0.0627
     16 C           2.8660   -1.0600    0.0000 C.3     1  UNL1       -0.0627
     17 C          13.2583   -0.0600    0.0000 C.3     1  UNL1        0.0116
     18 C          14.9904   -0.0600    0.0000 C.2     1  UNL1        0.2099
     19 C          15.8564    0.4400    0.0000 C.3     1  UNL1        0.0121
     20 H           7.5947    0.9149    0.0000 H       1  UNL1        0.0265
     21 H           6.7976    0.9149    0.0000 H       1  UNL1        0.0265
     22 H           5.9316   -0.5349    0.0000 H       1  UNL1        0.0265
     23 H           6.7287   -0.5349    0.0000 H       1  UNL1        0.0265
     24 H           7.6636   -0.5349    0.0000 H       1  UNL1        0.0265
     25 H           8.4607   -0.5349    0.0000 H       1  UNL1        0.0265
     26 H           5.8626    0.9149    0.0000 H       1  UNL1        0.0265
     27 H           5.0656    0.9149    0.0000 H       1  UNL1        0.0265
     28 H           9.3267    0.9149    0.0000 H       1  UNL1        0.0265
     29 H           8.5297    0.9149    0.0000 H       1  UNL1        0.0265
     30 H           4.1996   -0.5349    0.0000 H       1  UNL1        0.0265
     31 H           4.9966   -0.5349    0.0000 H       1  UNL1        0.0265
     32 H           9.3957   -0.5349    0.0000 H       1  UNL1        0.0265
     33 H          10.1928   -0.5349    0.0000 H       1  UNL1        0.0265
     34 H           4.1306    0.9149    0.0000 H       1  UNL1        0.0268
     35 H           3.3335    0.9149    0.0000 H       1  UNL1        0.0268
     36 H          11.0588    0.9149    0.0000 H       1  UNL1        0.0265
     37 H          10.2617    0.9149    0.0000 H       1  UNL1        0.0265
     38 H           2.8660    0.5600    0.0000 H       1  UNL1        0.0295
     39 H          11.1278   -0.5349    0.0000 H       1  UNL1        0.0266
     40 H          11.9248   -0.5349    0.0000 H       1  UNL1        0.0266
     41 H          12.7908    0.9149    0.0000 H       1  UNL1        0.0280
     42 H          11.9938    0.9149    0.0000 H       1  UNL1        0.0280
     43 H           2.3100    0.9769    0.0000 H       1  UNL1        0.0232
     44 H           1.4631    0.7500    0.0000 H       1  UNL1        0.0232
     45 H           1.6900   -0.0969    0.0000 H       1  UNL1        0.0232
     46 H           2.2460   -1.0600    0.0000 H       1  UNL1        0.0232
     47 H           2.8660   -1.6800    0.0000 H       1  UNL1        0.0232
     48 H           3.4860   -1.0600    0.0000 H       1  UNL1        0.0232
     49 H          12.8598   -0.5349    0.0000 H       1  UNL1        0.0462
     50 H          13.6569   -0.5349    0.0000 H       1  UNL1        0.0462
     51 H          14.1244    1.0600    0.0000 H       1  UNL1        0.1487
     52 H          16.1664   -0.0969    0.0000 H       1  UNL1        0.0322
     53 H          16.3933    0.7500    0.0000 H       1  UNL1        0.0322
     54 H          15.5464    0.9769    0.0000 H       1  UNL1        0.0322
@<TRIPOS>BOND
     1     1    18    2
     2     2    17    1
     3     2    18   am
     4     2    51    1
     5     3     4    1
     6     3     5    1
     7     3    20    1
     8     3    21    1
     9     4     6    1
    10     4    22    1
    11     4    23    1
    12     5     7    1
    13     5    24    1
    14     5    25    1
    15     6     8    1
    16     6    26    1
    17     6    27    1
    18     7     9    1
    19     7    28    1
    20     7    29    1
    21     8    10    1
    22     8    30    1
    23     8    31    1
    24     9    11    1
    25     9    32    1
    26     9    33    1
    27    10    12    1
    28    10    34    1
    29    10    35    1
    30    11    13    1
    31    11    36    1
    32    11    37    1
    33    12    15    1
    34    12    16    1
    35    12    38    1
    36    13    14    1
    37    13    39    1
    38    13    40    1
    39    14    17    1
    40    14    41    1
    41    14    42    1
    42    15    43    1
    43    15    44    1
    44    15    45    1
    45    16    46    1
    46    16    47    1
    47    16    48    1
    48    17    49    1
    49    17    50    1
    50    18    19    1
    51    19    52    1
    52    19    53    1
    53    19    54    1
