@<TRIPOS>MOLECULE
IMPHY002708
 82 87 0 0 0
SMALL
GASTEIGER

@<TRIPOS>ATOM
      1 O           6.3898    2.0815    0.0000 O.3     1  UNL1       -0.3476
      2 O           5.5399    3.6230    0.0000 O.3     1  UNL1       -0.3475
      3 O           2.7478    2.5768    0.0000 O.3     1  UNL1       -0.3877
      4 O           4.6200   -5.3179    0.0000 O.3     1  UNL1       -0.3912
      5 C           5.5238    0.5815    0.0000 C.3     1  UNL1        0.0081
      6 C           5.5399   -0.4600    0.0000 C.3     1  UNL1       -0.0206
      7 C           4.6578    1.0815    0.0000 C.3     1  UNL1       -0.0222
      8 C           4.6418   -0.9878    0.0000 C.3     1  UNL1       -0.0294
      9 C           4.6578    2.0815    0.0000 C.3     1  UNL1        0.0457
     10 C           5.5238    2.5815    0.0000 C.3     1  UNL1        0.1762
     11 C           5.1578    1.5815    0.0000 C.3     1  UNL1        0.0103
     12 C           4.6335   -2.0727    0.0000 C.3     1  UNL1       -0.0252
     13 C           6.3898    1.0815    0.0000 C.3     1  UNL1        0.0575
     14 C           3.7478    0.5746    0.0000 C.3     1  UNL1       -0.0488
     15 C           6.4918   -0.9806    0.0000 C.3     1  UNL1       -0.0465
     16 C           3.7398   -0.4670    0.0000 C.3     1  UNL1       -0.0489
     17 C           5.5731   -2.6152    0.0000 C.3     1  UNL1       -0.0278
     18 C           3.7478    2.5883    0.0000 C.3     1  UNL1        0.0796
     19 C           6.5085   -2.0655    0.0000 C.3     1  UNL1       -0.0486
     20 C           6.4020    0.0466    0.0000 C.3     1  UNL1       -0.0587
     21 C           5.5905   -3.7453    0.0000 C.3     1  UNL1       -0.0056
     22 C           3.6461   -2.6226    0.0000 C.3     1  UNL1       -0.0447
     23 C           3.7398    3.6299    0.0000 C.3     1  UNL1        0.0299
     24 C           3.7674   -1.5727    0.0000 C.3     1  UNL1       -0.0590
     25 C           4.6162   -4.3179    0.0000 C.3     1  UNL1        0.0606
     26 C           3.6374   -3.7528    0.0000 C.3     1  UNL1       -0.0258
     27 C           4.6418    4.1508    0.0000 C.3     1  UNL1        0.0598
     28 C           3.2578    1.7166    0.0000 C.3     1  UNL1       -0.0350
     29 C           6.1005   -4.6054    0.0000 C.3     1  UNL1       -0.0572
     30 C           6.5904   -3.7337    0.0000 C.3     1  UNL1       -0.0572
     31 C           2.8718    4.1266    0.0000 C.2     1  UNL1       -0.0773
     32 C           2.8680    5.1266    0.0000 C.2     1  UNL1       -0.0792
     33 C           2.0000    5.6232    0.0000 C.3     1  UNL1       -0.0440
     34 C           3.7320    5.6299    0.0000 C.3     1  UNL1       -0.0440
     35 H           3.8207    1.2291    0.0000 H       1  UNL1        0.0312
     36 H           3.9041   -1.4099    0.0000 H       1  UNL1        0.0312
     37 H           3.8207    1.9339    0.0000 H       1  UNL1        0.0384
     38 H           4.6607    1.9520    0.0000 H       1  UNL1        0.0323
     39 H           4.6607    1.2110    0.0000 H       1  UNL1        0.0323
     40 H           6.6019    0.4989    0.0000 H       1  UNL1        0.0567
     41 H           7.0004    1.1892    0.0000 H       1  UNL1        0.0567
     42 H           3.5432    1.1599    0.0000 H       1  UNL1        0.0268
     43 H           3.1361    0.4733    0.0000 H       1  UNL1        0.0268
     44 H           7.1042   -1.0773    0.0000 H       1  UNL1        0.0271
     45 H           6.6918   -0.3938    0.0000 H       1  UNL1        0.0271
     46 H           3.1297   -0.3562    0.0000 H       1  UNL1        0.0268
     47 H           3.5262   -1.0490    0.0000 H       1  UNL1        0.0268
     48 H           6.3141   -3.0317    0.0000 H       1  UNL1        0.0312
     49 H           6.7266   -2.6459    0.0000 H       1  UNL1        0.0268
     50 H           7.1177   -1.9500    0.0000 H       1  UNL1        0.0268
     51 H           6.7161   -0.4879    0.0000 H       1  UNL1        0.0235
     52 H           6.9365    0.3608    0.0000 H       1  UNL1        0.0235
     53 H           6.0879    0.5812    0.0000 H       1  UNL1        0.0235
     54 H           3.4416   -2.0374    0.0000 H       1  UNL1        0.0271
     55 H           3.0345   -2.7240    0.0000 H       1  UNL1        0.0271
     56 H           3.7386    4.2499    0.0000 H       1  UNL1        0.0393
     57 H           4.0774   -1.0358    0.0000 H       1  UNL1        0.0235
     58 H           3.2305   -1.2627    0.0000 H       1  UNL1        0.0235
     59 H           3.4574   -2.1097    0.0000 H       1  UNL1        0.0235
     60 H           4.0798   -4.6289    0.0000 H       1  UNL1        0.0599
     61 H           3.0274   -3.6420    0.0000 H       1  UNL1        0.0290
     62 H           3.4238   -4.3348    0.0000 H       1  UNL1        0.0290
     63 H           5.0428    4.6236    0.0000 H       1  UNL1        0.0568
     64 H           4.2445    4.6267    0.0000 H       1  UNL1        0.0568
     65 H           2.7173    2.0204    0.0000 H       1  UNL1        0.0258
     66 H           2.9540    1.1761    0.0000 H       1  UNL1        0.0258
     67 H           3.7983    1.4128    0.0000 H       1  UNL1        0.0258
     68 H           6.5976   -4.3536    0.0000 H       1  UNL1        0.0236
     69 H           7.2104   -3.7265    0.0000 H       1  UNL1        0.0236
     70 H           6.5833   -3.1137    0.0000 H       1  UNL1        0.0236
     71 H           5.5672   -4.9216    0.0000 H       1  UNL1        0.0236
     72 H           6.4167   -5.1388    0.0000 H       1  UNL1        0.0236
     73 H           6.6338   -4.2892    0.0000 H       1  UNL1        0.0236
     74 H           2.4317    3.1101    0.0000 H       1  UNL1        0.2102
     75 H           2.3361    3.8145    0.0000 H       1  UNL1        0.0576
     76 H           4.0843   -5.6299    0.0000 H       1  UNL1        0.2098
     77 H           4.0441    5.0942    0.0000 H       1  UNL1        0.0274
     78 H           4.2678    5.9420    0.0000 H       1  UNL1        0.0274
     79 H           2.3079    6.1614    0.0000 H       1  UNL1        0.0274
     80 H           3.4200    6.1657    0.0000 H       1  UNL1        0.0274
     81 H           1.4619    5.9312    0.0000 H       1  UNL1        0.0274
     82 H           1.6921    5.0851    0.0000 H       1  UNL1        0.0274
@<TRIPOS>BOND
     1     1    10    1
     2     1    13    1
     3    10     2    1
     4     2    27    1
     5     3    18    1
     6     3    74    1
     7    25     4    1
     8     4    76    1
     9     5     6    1
    10     5     7    1
    11     5    11    1
    12     5    13    1
    13     6     8    1
    14     6    15    1
    15     6    20    1
    16     7     9    1
    17     7    14    1
    18     7    35    1
    19     8    12    1
    20     8    16    1
    21     8    36    1
    22     9    10    1
    23     9    18    1
    24     9    37    1
    25    10    11    1
    26    11    38    1
    27    11    39    1
    28    12    17    1
    29    12    22    1
    30    12    24    1
    31    13    40    1
    32    13    41    1
    33    14    16    1
    34    14    42    1
    35    14    43    1
    36    15    19    1
    37    15    44    1
    38    15    45    1
    39    16    46    1
    40    16    47    1
    41    17    19    1
    42    17    21    1
    43    17    48    1
    44    18    23    1
    45    18    28    1
    46    19    49    1
    47    19    50    1
    48    20    51    1
    49    20    52    1
    50    20    53    1
    51    21    25    1
    52    21    29    1
    53    21    30    1
    54    22    26    1
    55    22    54    1
    56    22    55    1
    57    23    27    1
    58    23    31    1
    59    23    56    1
    60    24    57    1
    61    24    58    1
    62    24    59    1
    63    25    26    1
    64    25    60    1
    65    26    61    1
    66    26    62    1
    67    27    63    1
    68    27    64    1
    69    28    65    1
    70    28    66    1
    71    28    67    1
    72    29    71    1
    73    29    72    1
    74    29    73    1
    75    30    68    1
    76    30    69    1
    77    30    70    1
    78    31    32    2
    79    31    75    1
    80    32    33    1
    81    32    34    1
    82    33    79    1
    83    33    81    1
    84    33    82    1
    85    34    77    1
    86    34    78    1
    87    34    80    1
