@<TRIPOS>MOLECULE
IMPHY016262
 27 26 0 0 0
SMALL
GASTEIGER

@<TRIPOS>ATOM
      1 O           2.5369   -0.5600    0.0000 O.3     1  UNL1       -0.3851
      2 C           3.4030   -0.0600    0.0000 C.3     1  UNL1        0.0786
      3 C           4.2690    0.4400    0.0000 C.2     1  UNL1       -0.0570
      4 C           2.9030    0.8060    0.0000 C.3     1  UNL1       -0.0327
      5 C           3.9030   -0.9260    0.0000 C.3     1  UNL1       -0.0327
      6 C           5.1350   -0.0600    0.0000 C.2     1  UNL1       -0.0810
      7 C           6.0010    0.4400    0.0000 C.3     1  UNL1       -0.0100
      8 C           6.8671   -0.0600    0.0000 C.2     1  UNL1       -0.0513
      9 C           7.7331    0.4400    0.0000 C.2     1  UNL1       -0.0659
     10 C           6.8671   -1.0600    0.0000 C.2     1  UNL1       -0.0952
     11 C           8.5991   -0.0600    0.0000 C.2     1  UNL1       -0.0984
     12 H           4.2690    1.0600    0.0000 H       1  UNL1        0.0597
     13 H           3.4399    1.1160    0.0000 H       1  UNL1        0.0260
     14 H           2.5930    1.3430    0.0000 H       1  UNL1        0.0260
     15 H           2.3660    0.4960    0.0000 H       1  UNL1        0.0260
     16 H           3.3660   -1.2360    0.0000 H       1  UNL1        0.0260
     17 H           4.2130   -1.4630    0.0000 H       1  UNL1        0.0260
     18 H           4.4399   -0.6160    0.0000 H       1  UNL1        0.0260
     19 H           5.1350   -0.6800    0.0000 H       1  UNL1        0.0573
     20 H           6.3996    0.9149    0.0000 H       1  UNL1        0.0355
     21 H           5.6025    0.9149    0.0000 H       1  UNL1        0.0355
     22 H           2.0000   -0.2500    0.0000 H       1  UNL1        0.2106
     23 H           7.7331    1.0600    0.0000 H       1  UNL1        0.0614
     24 H           6.3301   -1.3700    0.0000 H       1  UNL1        0.0538
     25 H           7.4040   -1.3700    0.0000 H       1  UNL1        0.0538
     26 H           8.5991   -0.6800    0.0000 H       1  UNL1        0.0535
     27 H           9.1360    0.2500    0.0000 H       1  UNL1        0.0535
@<TRIPOS>BOND
     1     1     2    1
     2     1    22    1
     3     2     3    1
     4     2     4    1
     5     2     5    1
     6     3     6    2
     7     3    12    1
     8     4    13    1
     9     4    14    1
    10     4    15    1
    11     5    16    1
    12     5    17    1
    13     5    18    1
    14     6     7    1
    15     6    19    1
    16     7     8    1
    17     7    20    1
    18     7    21    1
    19     8     9    1
    20     8    10    2
    21     9    11    2
    22     9    23    1
    23    10    24    1
    24    10    25    1
    25    11    26    1
    26    11    27    1
