@<TRIPOS>MOLECULE
IMPHY003406
 56 60 0 0 0
SMALL
GASTEIGER

@<TRIPOS>ATOM
      1 O           6.3194   -1.4080    0.0000 O.3     1  UNL1       -0.3759
      2 O           5.9036   -3.3642    0.0000 O.3     1  UNL1       -0.4659
      3 O           7.0625   -2.0771    0.0000 O.2     1  UNL1       -0.2475
      4 O           6.4218    3.0823    0.0000 O.3     1  UNL1       -0.4951
      5 N           2.6254   -1.1340    0.0000 N.3     1  UNL1       -0.2940
      6 N           5.7049   -0.1334    0.0000 N.pl3   1  UNL1       -0.3364
      7 C           4.1652   -0.6337    0.0000 C.3     1  UNL1        0.0364
      8 C           3.5397   -1.3283    0.0000 C.3     1  UNL1        0.0314
      9 C           3.8286   -2.2173    0.0000 C.3     1  UNL1        0.0082
     10 C           5.0795   -0.8280    0.0000 C.3     1  UNL1        0.0710
     11 C           3.7801    0.4019    0.0000 C.3     1  UNL1       -0.0272
     12 C           5.3683   -1.7170    0.0000 C.3     1  UNL1        0.1820
     13 C           4.7429   -2.4116    0.0000 C.3     1  UNL1       -0.0011
     14 C           2.3366   -0.2450    0.0000 C.3     1  UNL1        0.0005
     15 C           4.5018    0.9499    0.0000 C.ar    1  UNL1       -0.0167
     16 C           4.1376   -3.1683    0.0000 C.3     1  UNL1       -0.0452
     17 C           3.2031   -2.9119    0.0000 C.2     1  UNL1       -0.0789
     18 C           2.0000   -1.8286    0.0000 C.3     1  UNL1        0.0174
     19 C           5.4161    0.7556    0.0000 C.ar    1  UNL1        0.0348
     20 C           2.2888   -2.7176    0.0000 C.2     1  UNL1       -0.0734
     21 C           6.1115   -2.3861    0.0000 C.2     1  UNL1        0.3408
     22 C           4.2129    1.8389    0.0000 C.ar    1  UNL1       -0.0527
     23 C           3.4685   -3.9115    0.0000 C.3     1  UNL1       -0.0644
     24 C           6.0415    1.4502    0.0000 C.ar    1  UNL1        0.0012
     25 C           4.8384    2.5335    0.0000 C.ar    1  UNL1       -0.0196
     26 C           5.7527    2.3392    0.0000 C.ar    1  UNL1        0.1219
     27 C           6.6467   -4.0334    0.0000 C.3     1  UNL1        0.0818
     28 C           6.1128    4.0334    0.0000 C.3     1  UNL1        0.0788
     29 H           3.2771   -0.5199    0.0000 H       1  UNL1        0.0480
     30 H           5.9109   -1.0047    0.0000 H       1  UNL1        0.0541
     31 H           4.3564    0.6306    0.0000 H       1  UNL1        0.0287
     32 H           3.5389    0.9731    0.0000 H       1  UNL1        0.0287
     33 H           4.5106   -2.9865    0.0000 H       1  UNL1        0.0308
     34 H           5.2687   -2.7402    0.0000 H       1  UNL1        0.0308
     35 H           2.1034    0.3295    0.0000 H       1  UNL1        0.0427
     36 H           1.7542   -0.4575    0.0000 H       1  UNL1        0.0427
     37 H           6.2946    0.0582    0.0000 H       1  UNL1        0.1465
     38 H           4.5193   -3.6569    0.0000 H       1  UNL1        0.0271
     39 H           4.6850   -2.8772    0.0000 H       1  UNL1        0.0271
     40 H           3.3947   -3.5016    0.0000 H       1  UNL1        0.0575
     41 H           1.6183   -1.3400    0.0000 H       1  UNL1        0.0470
     42 H           1.4526   -2.1197    0.0000 H       1  UNL1        0.0470
     43 H           1.8740   -3.1783    0.0000 H       1  UNL1        0.0582
     44 H           3.6065    1.9678    0.0000 H       1  UNL1        0.0622
     45 H           6.7342   -0.9472    0.0000 H       1  UNL1        0.2110
     46 H           3.0077   -3.4966    0.0000 H       1  UNL1        0.0230
     47 H           3.0536   -4.3722    0.0000 H       1  UNL1        0.0230
     48 H           3.9292   -4.3263    0.0000 H       1  UNL1        0.0230
     49 H           6.6480    1.3213    0.0000 H       1  UNL1        0.0673
     50 H           4.6468    3.1232    0.0000 H       1  UNL1        0.0654
     51 H           6.2318   -4.4941    0.0000 H       1  UNL1        0.0661
     52 H           7.1074   -4.4482    0.0000 H       1  UNL1        0.0661
     53 H           7.0616   -3.5726    0.0000 H       1  UNL1        0.0661
     54 H           6.7025    4.2250    0.0000 H       1  UNL1        0.0660
     55 H           5.9212    4.6230    0.0000 H       1  UNL1        0.0660
     56 H           5.5232    3.8418    0.0000 H       1  UNL1        0.0660
@<TRIPOS>BOND
     1    12     1    1
     2     1    45    1
     3     2    21    1
     4     2    27    1
     5     3    21    2
     6     4    26    1
     7     4    28    1
     8     5     8    1
     9     5    14    1
    10     5    18    1
    11     6    10    1
    12     6    19    1
    13     6    37    1
    14     7     8    1
    15     7    10    1
    16     7    11    1
    17     7    15    1
    18     8     9    1
    19     8    29    1
    20     9    13    1
    21     9    16    1
    22     9    17    1
    23    10    12    1
    24    10    30    1
    25    11    14    1
    26    11    31    1
    27    11    32    1
    28    12    13    1
    29    12    21    1
    30    13    33    1
    31    13    34    1
    32    14    35    1
    33    14    36    1
    34    15    19   ar
    35    15    22   ar
    36    16    23    1
    37    16    38    1
    38    16    39    1
    39    17    20    2
    40    17    40    1
    41    18    20    1
    42    18    41    1
    43    18    42    1
    44    19    24   ar
    45    20    43    1
    46    22    25   ar
    47    22    44    1
    48    23    46    1
    49    23    47    1
    50    23    48    1
    51    24    26   ar
    52    24    49    1
    53    25    26   ar
    54    25    50    1
    55    27    51    1
    56    27    52    1
    57    27    53    1
    58    28    54    1
    59    28    55    1
    60    28    56    1
