@<TRIPOS>MOLECULE
IMPHY011815
 56 59 0 0 0
SMALL
GASTEIGER

@<TRIPOS>ATOM
      1 O           4.6557   -0.0037    0.0000 O.3     1  UNL1       -0.3712
      2 O           7.7244   -0.0037    0.0000 O.3     1  UNL1       -0.3712
      3 O           5.9637    4.1937    0.0000 O.3     1  UNL1       -0.4913
      4 O           2.6691    3.1232    0.0000 O.3     1  UNL1       -0.4913
      5 O           9.7191   -3.1220    0.0000 O.3     1  UNL1       -0.4913
      6 O           6.4264   -4.1981    0.0000 O.3     1  UNL1       -0.4913
      7 O           4.0074    4.6095    0.0000 O.3     1  UNL1       -0.5009
      8 O           8.3834   -4.6106    0.0000 O.3     1  UNL1       -0.5009
      9 C           6.1945    0.4963    0.0000 C.3     1  UNL1        0.0205
     10 C           6.1945   -0.5037    0.0000 C.3     1  UNL1        0.0205
     11 C           5.2435    0.8053    0.0000 C.3     1  UNL1        0.0892
     12 C           7.1407   -0.8085    0.0000 C.3     1  UNL1        0.0892
     13 C           5.2435   -0.8128    0.0000 C.3     1  UNL1        0.0544
     14 C           7.1407    0.8010    0.0000 C.3     1  UNL1        0.0544
     15 C           4.9344    1.7563    0.0000 C.ar    1  UNL1       -0.0114
     16 C           7.4514   -1.7590    0.0000 C.ar    1  UNL1       -0.0114
     17 C           3.9563    1.9642    0.0000 C.ar    1  UNL1       -0.0104
     18 C           5.6036    2.4995    0.0000 C.ar    1  UNL1       -0.0104
     19 C           6.7836   -2.5033    0.0000 C.ar    1  UNL1       -0.0104
     20 C           8.4299   -1.9652    0.0000 C.ar    1  UNL1       -0.0104
     21 C           5.2946    3.4505    0.0000 C.ar    1  UNL1        0.1653
     22 C           3.6473    2.9153    0.0000 C.ar    1  UNL1        0.1653
     23 C           8.7406   -2.9157    0.0000 C.ar    1  UNL1        0.1653
     24 C           7.0942   -3.4538    0.0000 C.ar    1  UNL1        0.1653
     25 C           4.3164    3.6584    0.0000 C.ar    1  UNL1        0.2010
     26 C           8.0727   -3.6600    0.0000 C.ar    1  UNL1        0.2010
     27 C           6.9418    3.9858    0.0000 C.3     1  UNL1        0.0790
     28 C           2.0000    2.3801    0.0000 C.3     1  UNL1        0.0790
     29 C          10.3869   -2.3776    0.0000 C.3     1  UNL1        0.0790
     30 C           5.4479   -3.9919    0.0000 C.3     1  UNL1        0.0790
     31 H           6.1956    1.3463    0.0000 H       1  UNL1        0.0356
     32 H           6.1956   -1.3537    0.0000 H       1  UNL1        0.0356
     33 H           4.6311    0.9023    0.0000 H       1  UNL1        0.0650
     34 H           7.7532   -0.9047    0.0000 H       1  UNL1        0.0650
     35 H           4.7065   -1.1228    0.0000 H       1  UNL1        0.0564
     36 H           5.4956   -1.3792    0.0000 H       1  UNL1        0.0564
     37 H           7.6781    1.1102    0.0000 H       1  UNL1        0.0564
     38 H           6.8897    1.3679    0.0000 H       1  UNL1        0.0564
     39 H           3.5414    1.5035    0.0000 H       1  UNL1        0.0659
     40 H           6.2100    2.3706    0.0000 H       1  UNL1        0.0659
     41 H           6.1769   -2.3754    0.0000 H       1  UNL1        0.0659
     42 H           8.8440   -1.5037    0.0000 H       1  UNL1        0.0659
     43 H           3.4009    4.7384    0.0000 H       1  UNL1        0.2924
     44 H           8.9901   -4.7384    0.0000 H       1  UNL1        0.2924
     45 H           6.8129    3.3793    0.0000 H       1  UNL1        0.0660
     46 H           7.5483    3.8569    0.0000 H       1  UNL1        0.0660
     47 H           7.0707    4.5922    0.0000 H       1  UNL1        0.0660
     48 H           1.5392    2.7949    0.0000 H       1  UNL1        0.0660
     49 H           1.5851    1.9193    0.0000 H       1  UNL1        0.0660
     50 H           2.4608    1.9652    0.0000 H       1  UNL1        0.0660
     51 H          10.8484   -2.7917    0.0000 H       1  UNL1        0.0660
     52 H          10.8010   -1.9162    0.0000 H       1  UNL1        0.0660
     53 H           9.9254   -1.9636    0.0000 H       1  UNL1        0.0660
     54 H           5.5757   -3.3852    0.0000 H       1  UNL1        0.0660
     55 H           4.8412   -3.8640    0.0000 H       1  UNL1        0.0660
     56 H           5.3200   -4.5986    0.0000 H       1  UNL1        0.0660
@<TRIPOS>BOND
     1     1    11    1
     2     1    13    1
     3     2    12    1
     4     2    14    1
     5     3    21    1
     6     3    27    1
     7     4    22    1
     8     4    28    1
     9     5    23    1
    10     5    29    1
    11     6    24    1
    12     6    30    1
    13     7    25    1
    14     7    43    1
    15     8    26    1
    16     8    44    1
    17     9    10    1
    18     9    11    1
    19     9    14    1
    20     9    31    1
    21    10    12    1
    22    10    13    1
    23    10    32    1
    24    11    15    1
    25    11    33    1
    26    12    16    1
    27    12    34    1
    28    13    35    1
    29    13    36    1
    30    14    37    1
    31    14    38    1
    32    15    17   ar
    33    15    18   ar
    34    16    19   ar
    35    16    20   ar
    36    17    22   ar
    37    17    39    1
    38    18    21   ar
    39    18    40    1
    40    19    24   ar
    41    19    41    1
    42    20    23   ar
    43    20    42    1
    44    21    25   ar
    45    22    25   ar
    46    23    26   ar
    47    24    26   ar
    48    27    45    1
    49    27    46    1
    50    27    47    1
    51    28    48    1
    52    28    49    1
    53    28    50    1
    54    29    51    1
    55    29    52    1
    56    29    53    1
    57    30    54    1
    58    30    55    1
    59    30    56    1
