@<TRIPOS>MOLECULE
IMPHY017329
 27 28 0 0 0
SMALL
GASTEIGER

@<TRIPOS>ATOM
      1 O           6.3306    0.2500    0.0000 O.3     1  UNL1       -0.3607
      2 C           5.4641   -0.2500    0.0000 C.3     1  UNL1        0.0926
      3 C           5.4641    0.7500    0.0000 C.3     1  UNL1        0.1113
      4 C           4.5981   -0.7500    0.0000 C.3     1  UNL1       -0.0170
      5 C           3.7320   -0.2500    0.0000 C.3     1  UNL1       -0.0180
      6 C           4.5981    1.2500    0.0000 C.2     1  UNL1       -0.0540
      7 C           2.8660   -0.7500    0.0000 C.3     1  UNL1       -0.0404
      8 C           3.7320    0.7500    0.0000 C.2     1  UNL1       -0.0818
      9 C           5.4641    1.7500    0.0000 C.3     1  UNL1       -0.0297
     10 C           2.0000   -0.2500    0.0000 C.3     1  UNL1       -0.0621
     11 C           2.8660   -1.7500    0.0000 C.3     1  UNL1       -0.0621
     12 H           5.7740   -0.7870    0.0000 H       1  UNL1        0.0628
     13 H           4.1996   -1.2250    0.0000 H       1  UNL1        0.0297
     14 H           4.9966   -1.2250    0.0000 H       1  UNL1        0.0297
     15 H           3.7320   -0.8700    0.0000 H       1  UNL1        0.0346
     16 H           4.5981    1.8700    0.0000 H       1  UNL1        0.0598
     17 H           2.8660   -0.1300    0.0000 H       1  UNL1        0.0301
     18 H           3.1951    1.0600    0.0000 H       1  UNL1        0.0573
     19 H           6.0841    1.7500    0.0000 H       1  UNL1        0.0261
     20 H           5.4641    2.3700    0.0000 H       1  UNL1        0.0261
     21 H           4.8441    1.7500    0.0000 H       1  UNL1        0.0261
     22 H           2.3100    0.2869    0.0000 H       1  UNL1        0.0233
     23 H           1.4631    0.0600    0.0000 H       1  UNL1        0.0233
     24 H           1.6900   -0.7869    0.0000 H       1  UNL1        0.0233
     25 H           2.2460   -1.7500    0.0000 H       1  UNL1        0.0233
     26 H           2.8660   -2.3700    0.0000 H       1  UNL1        0.0233
     27 H           3.4860   -1.7500    0.0000 H       1  UNL1        0.0233
@<TRIPOS>BOND
     1     1     2    1
     2     1     3    1
     3     2     3    1
     4     2     4    1
     5     2    12    1
     6     3     6    1
     7     3     9    1
     8     4     5    1
     9     4    13    1
    10     4    14    1
    11     5     7    1
    12     5     8    1
    13     5    15    1
    14     6     8    2
    15     6    16    1
    16     7    10    1
    17     7    11    1
    18     7    17    1
    19     8    18    1
    20     9    19    1
    21     9    20    1
    22     9    21    1
    23    10    22    1
    24    10    23    1
    25    10    24    1
    26    11    25    1
    27    11    26    1
    28    11    27    1
