@<TRIPOS>MOLECULE
IMPHY002923
 79 83 0 0 0
SMALL
GASTEIGER

@<TRIPOS>ATOM
      1 O           2.0000   -3.2224    0.0000 O.2     1  UNL1       -0.2968
      2 O          10.0417    3.5162    0.0000 O.3     1  UNL1       -0.4804
      3 O           8.3098    3.4962    0.0000 O.2     1  UNL1       -0.2507
      4 C           6.5271   -1.6700    0.0000 C.3     1  UNL1       -0.0194
      5 C           5.6610   -1.1700    0.0000 C.3     1  UNL1       -0.0257
      6 C           7.3931   -1.1700    0.0000 C.3     1  UNL1       -0.0051
      7 C           4.7510   -1.6769    0.0000 C.3     1  UNL1       -0.0243
      8 C           4.7430   -2.7185    0.0000 C.3     1  UNL1       -0.0235
      9 C           6.5431   -2.7115    0.0000 C.3     1  UNL1       -0.0463
     10 C           7.3931   -0.1700    0.0000 C.2     1  UNL1       -0.0631
     11 C           8.2870    0.3646    0.0000 C.3     1  UNL1       -0.0106
     12 C           9.1931   -0.1492    0.0000 C.3     1  UNL1       -0.0252
     13 C           8.2870   -1.7047    0.0000 C.3     1  UNL1       -0.0429
     14 C           5.6451   -3.2393    0.0000 C.3     1  UNL1       -0.0483
     15 C           5.6610   -0.1700    0.0000 C.3     1  UNL1       -0.0306
     16 C           3.8076   -3.2682    0.0000 C.3     1  UNL1        0.0267
     17 C           9.1931   -1.1908    0.0000 C.3     1  UNL1       -0.0463
     18 C           3.8242   -1.1128    0.0000 C.3     1  UNL1       -0.0404
     19 C           7.1698   -2.4361    0.0000 C.3     1  UNL1       -0.0585
     20 C           6.5271    0.3300    0.0000 C.2     1  UNL1       -0.0836
     21 C           8.2619    1.4494    0.0000 C.3     1  UNL1       -0.0239
     22 C           7.7352   -2.1097    0.0000 C.3     1  UNL1       -0.0553
     23 C           4.7587   -0.6769    0.0000 C.3     1  UNL1       -0.0590
     24 C          10.1369    0.3860    0.0000 C.3     1  UNL1       -0.0463
     25 C           2.8763   -1.6407    0.0000 C.3     1  UNL1        0.0069
     26 C           9.1931    2.0063    0.0000 C.3     1  UNL1        0.0594
     27 C           2.8680   -2.7257    0.0000 C.2     1  UNL1        0.1392
     28 C          10.1369    1.4710    0.0000 C.3     1  UNL1       -0.0393
     29 C          10.0629   -0.6425    0.0000 C.3     1  UNL1       -0.0590
     30 C           3.3109   -4.1361    0.0000 C.3     1  UNL1       -0.0528
     31 C           4.3109   -4.1323    0.0000 C.3     1  UNL1       -0.0528
     32 C           7.3864    1.9326    0.0000 C.3     1  UNL1       -0.0611
     33 C           9.1815    3.0062    0.0000 C.2     1  UNL1        0.3081
     34 H           6.3972   -0.7450    0.0000 H       1  UNL1        0.0315
     35 H           4.7463   -3.5685    0.0000 H       1  UNL1        0.0315
     36 H           6.7612   -3.2919    0.0000 H       1  UNL1        0.0271
     37 H           7.1523   -2.5960    0.0000 H       1  UNL1        0.0271
     38 H           7.5428    0.7754    0.0000 H       1  UNL1        0.0354
     39 H           7.8824   -2.1745    0.0000 H       1  UNL1        0.0274
     40 H           8.6806   -2.1837    0.0000 H       1  UNL1        0.0274
     41 H           5.2478   -3.7152    0.0000 H       1  UNL1        0.0269
     42 H           6.0460   -3.7122    0.0000 H       1  UNL1        0.0269
     43 H           5.4490    0.4126    0.0000 H       1  UNL1        0.0310
     44 H           5.0504   -0.2777    0.0000 H       1  UNL1        0.0310
     45 H           9.4022   -1.7745    0.0000 H       1  UNL1        0.0271
     46 H           9.8040   -1.0847    0.0000 H       1  UNL1        0.0271
     47 H           4.2324   -0.6461    0.0000 H       1  UNL1        0.0275
     48 H           3.4343   -0.6307    0.0000 H       1  UNL1        0.0275
     49 H           6.6949   -2.8346    0.0000 H       1  UNL1        0.0235
     50 H           7.5684   -2.9110    0.0000 H       1  UNL1        0.0235
     51 H           7.6448   -2.0375    0.0000 H       1  UNL1        0.0235
     52 H           6.5271    0.9500    0.0000 H       1  UNL1        0.0572
     53 H           7.7317    1.1280    0.0000 H       1  UNL1        0.0312
     54 H           7.1526   -2.3218    0.0000 H       1  UNL1        0.0238
     55 H           7.9473   -2.6923    0.0000 H       1  UNL1        0.0238
     56 H           8.3178   -1.8976    0.0000 H       1  UNL1        0.0238
     57 H           5.3787   -0.6817    0.0000 H       1  UNL1        0.0235
     58 H           4.7635   -0.0569    0.0000 H       1  UNL1        0.0235
     59 H           4.1388   -0.6721    0.0000 H       1  UNL1        0.0235
     60 H          10.3459   -0.1977    0.0000 H       1  UNL1        0.0271
     61 H          10.7477    0.4921    0.0000 H       1  UNL1        0.0271
     62 H           2.6718   -1.0554    0.0000 H       1  UNL1        0.0342
     63 H           2.2647   -1.7421    0.0000 H       1  UNL1        0.0342
     64 H           9.7270    2.3214    0.0000 H       1  UNL1        0.0416
     65 H          10.7477    1.3649    0.0000 H       1  UNL1        0.0273
     66 H          10.3459    2.0547    0.0000 H       1  UNL1        0.0273
     67 H           9.7571   -1.1818    0.0000 H       1  UNL1        0.0235
     68 H          10.6023   -0.9484    0.0000 H       1  UNL1        0.0235
     69 H          10.3688   -0.1032    0.0000 H       1  UNL1        0.0235
     70 H           2.7728   -3.8282    0.0000 H       1  UNL1        0.0239
     71 H           3.0030   -4.6743    0.0000 H       1  UNL1        0.0239
     72 H           3.8490   -4.4441    0.0000 H       1  UNL1        0.0239
     73 H           3.7752   -4.4444    0.0000 H       1  UNL1        0.0239
     74 H           4.6230   -4.6680    0.0000 H       1  UNL1        0.0239
     75 H           4.8466   -3.8202    0.0000 H       1  UNL1        0.0239
     76 H           7.6860    2.4754    0.0000 H       1  UNL1        0.0233
     77 H           6.8436    2.2322    0.0000 H       1  UNL1        0.0233
     78 H           7.0868    1.3898    0.0000 H       1  UNL1        0.0233
     79 H          10.0345    4.1361    0.0000 H       1  UNL1        0.2951
@<TRIPOS>BOND
     1     1    27    2
     2     2    33    1
     3     2    79    1
     4     3    33    2
     5     4     5    1
     6     4     6    1
     7     4     9    1
     8     4    19    1
     9     5     7    1
    10     5    15    1
    11     5    34    1
    12     6    10    1
    13     6    13    1
    14     6    22    1
    15     7     8    1
    16     7    18    1
    17     7    23    1
    18     8    14    1
    19     8    16    1
    20     8    35    1
    21     9    14    1
    22     9    36    1
    23     9    37    1
    24    10    11    1
    25    10    20    2
    26    11    12    1
    27    11    21    1
    28    11    38    1
    29    12    17    1
    30    12    24    1
    31    12    29    1
    32    13    17    1
    33    13    39    1
    34    13    40    1
    35    14    41    1
    36    14    42    1
    37    15    20    1
    38    15    43    1
    39    15    44    1
    40    16    27    1
    41    16    30    1
    42    16    31    1
    43    17    45    1
    44    17    46    1
    45    18    25    1
    46    18    47    1
    47    18    48    1
    48    19    49    1
    49    19    50    1
    50    19    51    1
    51    20    52    1
    52    21    26    1
    53    21    32    1
    54    21    53    1
    55    22    54    1
    56    22    55    1
    57    22    56    1
    58    23    57    1
    59    23    58    1
    60    23    59    1
    61    24    28    1
    62    24    60    1
    63    24    61    1
    64    25    27    1
    65    25    62    1
    66    25    63    1
    67    26    28    1
    68    26    33    1
    69    26    64    1
    70    28    65    1
    71    28    66    1
    72    29    67    1
    73    29    68    1
    74    29    69    1
    75    30    70    1
    76    30    71    1
    77    30    72    1
    78    31    73    1
    79    31    74    1
    80    31    75    1
    81    32    76    1
    82    32    77    1
    83    32    78    1
