@<TRIPOS>MOLECULE
IMPHY004604
 32 35 0 0 0
SMALL
GASTEIGER

@<TRIPOS>ATOM
      1 O           5.9707   -0.8114    0.0000 O.2     1  UNL1       -0.4558
      2 O           4.9940   -3.3035    0.0000 O.3     1  UNL1       -0.3873
      3 N           4.5274    3.2753    0.0000 N.ar    1  UNL1       -0.3540
      4 N           6.7328    1.1605    0.0000 N.ar    1  UNL1       -0.2511
      5 C           5.0274    1.7365    0.0000 C.ar    1  UNL1        0.0364
      6 C           4.0274    1.7365    0.0000 C.ar    1  UNL1        0.0096
      7 C           5.3364    2.6876    0.0000 C.ar    1  UNL1        0.0511
      8 C           3.7183    2.6876    0.0000 C.ar    1  UNL1        0.0475
      9 C           5.7123    0.9518    0.0000 C.ar    1  UNL1        0.1156
     10 C           5.3923    0.0043    0.0000 C.ar    1  UNL1        0.1541
     11 C           3.3424    0.9518    0.0000 C.ar    1  UNL1       -0.0519
     12 C           6.3518    2.9198    0.0000 C.ar    1  UNL1       -0.0196
     13 C           2.7029    2.9198    0.0000 C.ar    1  UNL1       -0.0378
     14 C           7.0547    2.1511    0.0000 C.ar    1  UNL1        0.0304
     15 C           2.3219    1.1605    0.0000 C.ar    1  UNL1       -0.0611
     16 C           2.0000    2.1511    0.0000 C.ar    1  UNL1       -0.0598
     17 C           4.4378   -0.2937    0.0000 C.ar    1  UNL1       -0.0140
     18 C           5.3736   -1.6136    0.0000 C.ar    1  UNL1        0.1310
     19 C           4.4262   -1.2936    0.0000 C.ar    1  UNL1       -0.0177
     20 C           5.6716   -2.5682    0.0000 C.3     1  UNL1        0.1019
     21 H           4.5274    3.8953    0.0000 H       1  UNL1        0.1659
     22 H           3.5408    0.3644    0.0000 H       1  UNL1        0.0624
     23 H           6.5365    3.5116    0.0000 H       1  UNL1        0.0653
     24 H           2.5182    3.5116    0.0000 H       1  UNL1        0.0638
     25 H           7.6607    2.2824    0.0000 H       1  UNL1        0.0830
     26 H           1.9088    0.6981    0.0000 H       1  UNL1        0.0618
     27 H           3.9404    0.0765    0.0000 H       1  UNL1        0.0656
     28 H           1.3940    2.2824    0.0000 H       1  UNL1        0.0618
     29 H           3.9204   -1.6522    0.0000 H       1  UNL1        0.0653
     30 H           6.0477   -3.0611    0.0000 H       1  UNL1        0.0638
     31 H           6.2224   -2.2834    0.0000 H       1  UNL1        0.0638
     32 H           5.1787   -3.8953    0.0000 H       1  UNL1        0.2100
@<TRIPOS>BOND
     1     1    10   ar
     2     1    18   ar
     3     2    20    1
     4     2    32    1
     5     3     7   ar
     6     3     8   ar
     7     3    21    1
     8     4     9   ar
     9     4    14   ar
    10     5     6   ar
    11     5     7   ar
    12     5     9   ar
    13     6     8   ar
    14     6    11   ar
    15     7    12   ar
    16     8    13   ar
    17     9    10    1
    18    10    17   ar
    19    11    15   ar
    20    11    22    1
    21    12    14   ar
    22    12    23    1
    23    13    16   ar
    24    13    24    1
    25    14    25    1
    26    15    16   ar
    27    15    26    1
    28    16    28    1
    29    17    19   ar
    30    17    27    1
    31    18    19   ar
    32    18    20    1
    33    19    29    1
    34    20    30    1
    35    20    31    1
