@<TRIPOS>MOLECULE
IMPHY016215
 29 29 0 0 0
SMALL
GASTEIGER

@<TRIPOS>ATOM
      1 C           3.7320    0.0000    0.0000 C.ar    1  UNL1       -0.0192
      2 C           4.5981   -0.5000    0.0000 C.ar    1  UNL1       -0.0428
      3 C           2.8660   -0.5000    0.0000 C.ar    1  UNL1       -0.0428
      4 C           3.7320   -2.0000    0.0000 C.ar    1  UNL1       -0.0499
      5 C           4.5981   -1.5000    0.0000 C.ar    1  UNL1       -0.0553
      6 C           2.8660   -1.5000    0.0000 C.ar    1  UNL1       -0.0553
      7 C           5.4641   -0.0000    0.0000 C.3     1  UNL1       -0.0391
      8 C           2.0000    0.0000    0.0000 C.3     1  UNL1       -0.0391
      9 C           3.7320    1.0000    0.0000 C.2     1  UNL1       -0.0541
     10 C           3.7320   -3.0000    0.0000 C.3     1  UNL1       -0.0397
     11 C           4.5981    1.5000    0.0000 C.2     1  UNL1       -0.0617
     12 C           4.5981    2.5000    0.0000 C.2     1  UNL1       -0.0688
     13 C           5.4641    3.0000    0.0000 C.2     1  UNL1       -0.0987
     14 H           5.1350   -1.8100    0.0000 H       1  UNL1        0.0623
     15 H           2.3291   -1.8100    0.0000 H       1  UNL1        0.0623
     16 H           5.7741   -0.5369    0.0000 H       1  UNL1        0.0278
     17 H           6.0010    0.3100    0.0000 H       1  UNL1        0.0278
     18 H           5.1541    0.5369    0.0000 H       1  UNL1        0.0278
     19 H           2.3100    0.5369    0.0000 H       1  UNL1        0.0278
     20 H           1.4631    0.3100    0.0000 H       1  UNL1        0.0278
     21 H           1.6900   -0.5369    0.0000 H       1  UNL1        0.0278
     22 H           3.1951    1.3100    0.0000 H       1  UNL1        0.0624
     23 H           3.1120   -3.0000    0.0000 H       1  UNL1        0.0278
     24 H           3.7320   -3.6200    0.0000 H       1  UNL1        0.0278
     25 H           4.3520   -3.0000    0.0000 H       1  UNL1        0.0278
     26 H           5.1350    1.1900    0.0000 H       1  UNL1        0.0618
     27 H           4.0611    2.8100    0.0000 H       1  UNL1        0.0612
     28 H           6.0010    2.6900    0.0000 H       1  UNL1        0.0535
     29 H           5.4641    3.6200    0.0000 H       1  UNL1        0.0535
@<TRIPOS>BOND
     1     1     2   ar
     2     1     3   ar
     3     1     9    1
     4     2     5   ar
     5     2     7    1
     6     3     6   ar
     7     3     8    1
     8     4     5   ar
     9     4     6   ar
    10     4    10    1
    11     5    14    1
    12     6    15    1
    13     7    16    1
    14     7    17    1
    15     7    18    1
    16     8    19    1
    17     8    20    1
    18     8    21    1
    19     9    11    2
    20     9    22    1
    21    10    23    1
    22    10    24    1
    23    10    25    1
    24    11    12    1
    25    11    26    1
    26    12    13    2
    27    12    27    1
    28    13    28    1
    29    13    29    1
