@<TRIPOS>MOLECULE
IMPHY015913
 35 34 0 0 0
SMALL
GASTEIGER

@<TRIPOS>ATOM
      1 O           4.5981    0.7500    0.0000 O.3     1  UNL1       -0.4646
      2 O           5.4641   -0.7500    0.0000 O.2     1  UNL1       -0.2509
      3 C           8.9282    0.2500    0.0000 C.3     1  UNL1       -0.0531
      4 C           8.0622    0.7500    0.0000 C.3     1  UNL1       -0.0526
      5 C           9.7942    0.7500    0.0000 C.3     1  UNL1       -0.0533
      6 C           7.1962    0.2500    0.0000 C.3     1  UNL1       -0.0430
      7 C          10.6603    0.2500    0.0000 C.3     1  UNL1       -0.0559
      8 C           6.3301    0.7500    0.0000 C.3     1  UNL1        0.0449
      9 C          11.5263    0.7500    0.0000 C.3     1  UNL1       -0.0653
     10 C           5.4641    0.2500    0.0000 C.2     1  UNL1        0.3071
     11 C           3.7320    0.2500    0.0000 C.3     1  UNL1        0.0922
     12 C           2.8660    0.7500    0.0000 C.3     1  UNL1       -0.0214
     13 C           2.0000    0.2500    0.0000 C.3     1  UNL1       -0.0622
     14 H           8.5297   -0.2249    0.0000 H       1  UNL1        0.0265
     15 H           9.3267   -0.2249    0.0000 H       1  UNL1        0.0265
     16 H           8.4607    1.2250    0.0000 H       1  UNL1        0.0265
     17 H           7.6636    1.2250    0.0000 H       1  UNL1        0.0265
     18 H          10.1928    1.2250    0.0000 H       1  UNL1        0.0265
     19 H           9.3957    1.2250    0.0000 H       1  UNL1        0.0265
     20 H           6.7976   -0.2249    0.0000 H       1  UNL1        0.0270
     21 H           7.5947   -0.2249    0.0000 H       1  UNL1        0.0270
     22 H          10.2617   -0.2249    0.0000 H       1  UNL1        0.0263
     23 H          11.0588   -0.2249    0.0000 H       1  UNL1        0.0263
     24 H           6.7287    1.2250    0.0000 H       1  UNL1        0.0377
     25 H           5.9316    1.2250    0.0000 H       1  UNL1        0.0377
     26 H          11.8363    0.2131    0.0000 H       1  UNL1        0.0230
     27 H          12.0632    1.0600    0.0000 H       1  UNL1        0.0230
     28 H          11.2163    1.2869    0.0000 H       1  UNL1        0.0230
     29 H           3.3335   -0.2249    0.0000 H       1  UNL1        0.0697
     30 H           4.1306   -0.2249    0.0000 H       1  UNL1        0.0697
     31 H           3.2646    1.2250    0.0000 H       1  UNL1        0.0295
     32 H           2.4675    1.2250    0.0000 H       1  UNL1        0.0295
     33 H           1.6900    0.7869    0.0000 H       1  UNL1        0.0231
     34 H           1.4631   -0.0600    0.0000 H       1  UNL1        0.0231
     35 H           2.3100   -0.2869    0.0000 H       1  UNL1        0.0231
@<TRIPOS>BOND
     1     1    10    1
     2     1    11    1
     3     2    10    2
     4     3     4    1
     5     3     5    1
     6     3    14    1
     7     3    15    1
     8     4     6    1
     9     4    16    1
    10     4    17    1
    11     5     7    1
    12     5    18    1
    13     5    19    1
    14     6     8    1
    15     6    20    1
    16     6    21    1
    17     7     9    1
    18     7    22    1
    19     7    23    1
    20     8    10    1
    21     8    24    1
    22     8    25    1
    23     9    26    1
    24     9    27    1
    25     9    28    1
    26    11    12    1
    27    11    29    1
    28    11    30    1
    29    12    13    1
    30    12    31    1
    31    12    32    1
    32    13    33    1
    33    13    34    1
    34    13    35    1
