@<TRIPOS>MOLECULE
IMPHY004015
 95 102 0 0 0
SMALL
GASTEIGER

@<TRIPOS>ATOM
      1 O           6.0380    1.9158    0.0000 O.3     1  UNL1       -0.3578
      2 O          10.1724    2.8452    0.0000 O.3     1  UNL1       -0.3329
      3 O           4.4368    0.7351    0.0000 O.3     1  UNL1       -0.3724
      4 O           8.0438   -1.4258    0.0000 O.3     1  UNL1       -0.3391
      5 O           5.5198    1.7319    0.0000 O.3     1  UNL1       -0.3886
      6 O           7.1737   -2.4424    0.0000 O.3     1  UNL1       -0.4573
      7 O           8.0406    4.1458    0.0000 O.3     1  UNL1       -0.3778
      8 O           9.1181   -0.7264    0.0000 O.3     1  UNL1       -0.3560
      9 O          10.4650    4.7198    0.0000 O.2     1  UNL1       -0.4680
     10 O           3.6339   -2.4560    0.0000 O.3     1  UNL1       -0.4602
     11 O           2.9999   -1.7664    0.0000 O.3     1  UNL1       -0.4674
     12 O           9.5267    0.3955    0.0000 O.3     1  UNL1       -0.4642
     13 O           3.0200   -0.0344    0.0000 O.2     1  UNL1       -0.2500
     14 O           7.9456    1.1028    0.0000 O.2     1  UNL1       -0.2447
     15 O           6.3251   -3.9523    0.0000 O.2     1  UNL1       -0.2453
     16 O           4.4941   -3.9593    0.0000 O.2     1  UNL1       -0.2512
     17 C           6.9782    1.5739    0.0000 C.3     1  UNL1        0.1334
     18 C           7.1519    0.5891    0.0000 C.3     1  UNL1        0.0395
     19 C           6.8046    2.5587    0.0000 C.3     1  UNL1        0.1055
     20 C           7.1519   -0.4109    0.0000 C.3     1  UNL1        0.0462
     21 C           6.2859   -0.9109    0.0000 C.3     1  UNL1        0.0467
     22 C           8.2875    2.6888    0.0000 C.3     1  UNL1        0.0316
     23 C           8.4612    1.7040    0.0000 C.3     1  UNL1        0.0955
     24 C           5.4198   -0.4109    0.0000 C.3     1  UNL1        0.0207
     25 C           6.2859    1.0891    0.0000 C.3     1  UNL1        0.0902
     26 C           9.5440    1.1247    0.0000 C.3     1  UNL1       -0.0149
     27 C           5.4198    0.5891    0.0000 C.3     1  UNL1        0.0899
     28 C           4.5098   -0.9178    0.0000 C.3     1  UNL1        0.1334
     29 C           9.0283    3.9894    0.0000 C.3     1  UNL1        0.1545
     30 C           8.1237   -0.6201    0.0000 C.3     1  UNL1        0.2720
     31 C           6.3019   -1.9524    0.0000 C.3     1  UNL1        0.1153
     32 C           7.9179   -0.0537    0.0000 C.3     1  UNL1       -0.0538
     33 C           6.9530   -1.6479    0.0000 C.3     1  UNL1        0.0613
     34 C           6.6310    3.5435    0.0000 C.3     1  UNL1       -0.0326
     35 C           4.5018   -1.9594    0.0000 C.3     1  UNL1        0.1246
     36 C          10.0160    3.8329    0.0000 C.3     1  UNL1        0.2342
     37 C           5.4039   -2.4802    0.0000 C.3     1  UNL1        0.0234
     38 C           3.9230   -0.1157    0.0000 C.3     1  UNL1        0.0677
     39 C           8.8753    4.9716    0.0000 C.2     1  UNL1       -0.0121
     40 C           3.5099   -0.9062    0.0000 C.2     1  UNL1        0.3193
     41 C           8.5320    0.2927    0.0000 C.2     1  UNL1        0.3675
     42 C           9.7614    5.4221    0.0000 C.2     1  UNL1        0.0870
     43 C           7.1852   -3.4423    0.0000 C.2     1  UNL1        0.3348
     44 C           3.6300   -3.4560    0.0000 C.2     1  UNL1        0.3042
     45 C           2.0000   -1.7548    0.0000 C.3     1  UNL1        0.0817
     46 C          10.1131   -0.4145    0.0000 C.3     1  UNL1        0.0818
     47 C           8.0570   -3.9322    0.0000 C.2     1  UNL1        0.0293
     48 C           2.7621   -3.9527    0.0000 C.3     1  UNL1        0.0332
     49 C           8.9172   -3.4223    0.0000 C.3     1  UNL1       -0.0333
     50 C           8.0686   -4.9322    0.0000 C.2     1  UNL1       -0.0774
     51 C           8.9403   -5.4221    0.0000 C.3     1  UNL1       -0.0461
     52 H           7.8132    0.1232    0.0000 H       1  UNL1        0.0373
     53 H           8.1399    3.5259    0.0000 H       1  UNL1        0.0363
     54 H           8.6088    0.8669    0.0000 H       1  UNL1        0.0627
     55 H           5.4198   -1.2609    0.0000 H       1  UNL1        0.0347
     56 H           6.6415    1.5970    0.0000 H       1  UNL1        0.0626
     57 H           9.4810    0.5079    0.0000 H       1  UNL1        0.0296
     58 H          10.1386    1.3005    0.0000 H       1  UNL1        0.0296
     59 H           5.2609    1.4241    0.0000 H       1  UNL1        0.0625
     60 H           6.3079   -2.5724    0.0000 H       1  UNL1        0.0742
     61 H           7.5194   -0.5286    0.0000 H       1  UNL1        0.0237
     62 H           8.3929   -0.4522    0.0000 H       1  UNL1        0.0237
     63 H           8.3165    0.4213    0.0000 H       1  UNL1        0.0237
     64 H           6.4268   -1.9759    0.0000 H       1  UNL1        0.0568
     65 H           7.1824   -2.2239    0.0000 H       1  UNL1        0.0568
     66 H           7.2415    3.6512    0.0000 H       1  UNL1        0.0258
     67 H           6.5233    4.1541    0.0000 H       1  UNL1        0.0258
     68 H           6.0204    3.4358    0.0000 H       1  UNL1        0.0258
     69 H           4.5006   -2.5793    0.0000 H       1  UNL1        0.0747
     70 H          10.8555    3.7000    0.0000 H       1  UNL1        0.1090
     71 H           5.0066   -2.9561    0.0000 H       1  UNL1        0.0337
     72 H           5.8049   -2.9531    0.0000 H       1  UNL1        0.0337
     73 H           3.4391    0.2719    0.0000 H       1  UNL1        0.0572
     74 H           3.4752   -0.5444    0.0000 H       1  UNL1        0.0572
     75 H           4.9372    1.5198    0.0000 H       1  UNL1        0.2099
     76 H           8.3234    5.2540    0.0000 H       1  UNL1        0.0633
     77 H           7.8184    4.7246    0.0000 H       1  UNL1        0.2109
     78 H           9.3692   -1.2932    0.0000 H       1  UNL1        0.2133
     79 H           9.8584    6.0345    0.0000 H       1  UNL1        0.1022
     80 H           2.0072   -1.1348    0.0000 H       1  UNL1        0.0661
     81 H           1.3800   -1.7476    0.0000 H       1  UNL1        0.0661
     82 H           1.9928   -2.3748    0.0000 H       1  UNL1        0.0661
     83 H           9.6109   -0.7781    0.0000 H       1  UNL1        0.0661
     84 H          10.4767   -0.9167    0.0000 H       1  UNL1        0.0661
     85 H          10.6153   -0.0509    0.0000 H       1  UNL1        0.0661
     86 H           2.4541   -3.4145    0.0000 H       1  UNL1        0.0342
     87 H           2.2239   -4.2606    0.0000 H       1  UNL1        0.0342
     88 H           3.0700   -4.4908    0.0000 H       1  UNL1        0.0342
     89 H           9.2334   -3.9556    0.0000 H       1  UNL1        0.0280
     90 H           9.4505   -3.1061    0.0000 H       1  UNL1        0.0280
     91 H           8.6010   -2.8890    0.0000 H       1  UNL1        0.0280
     92 H           7.5352   -5.2484    0.0000 H       1  UNL1        0.0574
     93 H           8.6365   -5.9626    0.0000 H       1  UNL1        0.0272
     94 H           9.4808   -5.7259    0.0000 H       1  UNL1        0.0272
     95 H           9.2441   -4.8816    0.0000 H       1  UNL1        0.0272
@<TRIPOS>BOND
     1    17     1    1
     2     1    19    1
     3     2    23    1
     4     2    36    1
     5     3    27    1
     6     3    38    1
     7     4    30    1
     8     4    33    1
     9    25     5    1
    10     5    75    1
    11    31     6    1
    12     6    43    1
    13    29     7    1
    14     7    77    1
    15    30     8    1
    16     8    78    1
    17     9    36    1
    18     9    42    1
    19    35    10    1
    20    10    44    1
    21    11    40    1
    22    11    45    1
    23    12    41    1
    24    12    46    1
    25    13    40    2
    26    14    41    2
    27    15    43    2
    28    16    44    2
    29    17    18    1
    30    17    19    1
    31    17    23    1
    32    18    20    1
    33    18    25    1
    34    18    32    1
    35    19    22    1
    36    19    34    1
    37    20    21    1
    38    20    30    1
    39    20    52    1
    40    21    24    1
    41    21    31    1
    42    21    33    1
    43    22    26    1
    44    22    29    1
    45    22    53    1
    46    23    26    1
    47    23    54    1
    48    24    27    1
    49    24    28    1
    50    24    55    1
    51    25    27    1
    52    25    56    1
    53    26    57    1
    54    26    58    1
    55    27    59    1
    56    28    35    1
    57    28    38    1
    58    28    40    1
    59    29    36    1
    60    29    39    1
    61    30    41    1
    62    31    37    1
    63    31    60    1
    64    32    61    1
    65    32    62    1
    66    32    63    1
    67    33    64    1
    68    33    65    1
    69    34    66    1
    70    34    67    1
    71    34    68    1
    72    35    37    1
    73    35    69    1
    74    36    70    1
    75    37    71    1
    76    37    72    1
    77    38    73    1
    78    38    74    1
    79    39    42    2
    80    39    76    1
    81    42    79    1
    82    43    47    1
    83    44    48    1
    84    45    80    1
    85    45    81    1
    86    45    82    1
    87    46    83    1
    88    46    84    1
    89    46    85    1
    90    47    49    1
    91    47    50    2
    92    48    86    1
    93    48    87    1
    94    48    88    1
    95    49    89    1
    96    49    90    1
    97    49    91    1
    98    50    51    1
    99    50    92    1
   100    51    93    1
   101    51    94    1
   102    51    95    1
