@<TRIPOS>MOLECULE
IMPHY010471
 50 52 0 0 0
SMALL
GASTEIGER

@<TRIPOS>ATOM
      1 O           2.0000   -1.6535    0.0000 O.2     1  UNL1       -0.2968
      2 O           8.1821    1.9158    0.0000 O.3     1  UNL1       -0.5065
      3 C           4.6641   -1.1293    0.0000 C.3     1  UNL1       -0.0195
      4 C           4.6641   -0.1293    0.0000 C.3     1  UNL1       -0.0027
      5 C           3.7702   -1.6640    0.0000 C.3     1  UNL1        0.0270
      6 C           3.7702    0.4053    0.0000 C.3     1  UNL1       -0.0366
      7 C           5.5301   -1.6293    0.0000 C.3     1  UNL1       -0.0445
      8 C           5.5301    0.3707    0.0000 C.ar    1  UNL1       -0.0375
      9 C           2.8641   -0.1085    0.0000 C.3     1  UNL1        0.0072
     10 C           6.3961   -1.1293    0.0000 C.3     1  UNL1       -0.0267
     11 C           2.8641   -1.1502    0.0000 C.2     1  UNL1        0.1392
     12 C           6.3961   -0.1293    0.0000 C.ar    1  UNL1       -0.0368
     13 C           4.6641    0.8707    0.0000 C.3     1  UNL1       -0.0552
     14 C           3.2802   -2.5358    0.0000 C.3     1  UNL1       -0.0528
     15 C           4.2801   -2.5242    0.0000 C.3     1  UNL1       -0.0528
     16 C           7.3062    0.3775    0.0000 C.ar    1  UNL1        0.0001
     17 C           5.5141    1.4122    0.0000 C.ar    1  UNL1       -0.0543
     18 C           8.1663   -0.1325    0.0000 C.3     1  UNL1       -0.0178
     19 C           7.3142    1.4191    0.0000 C.ar    1  UNL1        0.1205
     20 C           6.4121    1.9399    0.0000 C.ar    1  UNL1       -0.0196
     21 C           9.0381    0.3575    0.0000 C.3     1  UNL1       -0.0585
     22 C           8.1548   -1.1324    0.0000 C.3     1  UNL1       -0.0585
     23 H           4.6706   -1.9793    0.0000 H       1  UNL1        0.0319
     24 H           4.1748    0.8751    0.0000 H       1  UNL1        0.0278
     25 H           3.3765    0.8843    0.0000 H       1  UNL1        0.0278
     26 H           5.1316   -2.1043    0.0000 H       1  UNL1        0.0272
     27 H           5.9286   -2.1043    0.0000 H       1  UNL1        0.0272
     28 H           2.6550    0.4752    0.0000 H       1  UNL1        0.0342
     29 H           2.2532   -0.2146    0.0000 H       1  UNL1        0.0342
     30 H           6.6082   -1.7120    0.0000 H       1  UNL1        0.0313
     31 H           7.0067   -1.0217    0.0000 H       1  UNL1        0.0313
     32 H           5.2841    0.8707    0.0000 H       1  UNL1        0.0238
     33 H           4.6641    1.4907    0.0000 H       1  UNL1        0.0238
     34 H           4.0441    0.8707    0.0000 H       1  UNL1        0.0238
     35 H           2.7397   -2.2320    0.0000 H       1  UNL1        0.0239
     36 H           2.9764   -3.0762    0.0000 H       1  UNL1        0.0239
     37 H           3.8207   -2.8395    0.0000 H       1  UNL1        0.0239
     38 H           3.7468   -2.8404    0.0000 H       1  UNL1        0.0239
     39 H           4.5963   -3.0575    0.0000 H       1  UNL1        0.0239
     40 H           4.8134   -2.2080    0.0000 H       1  UNL1        0.0239
     41 H           4.9736    1.7159    0.0000 H       1  UNL1        0.0622
     42 H           8.1735    0.4875    0.0000 H       1  UNL1        0.0345
     43 H           6.4097    2.5599    0.0000 H       1  UNL1        0.0654
     44 H           9.3419   -0.1830    0.0000 H       1  UNL1        0.0235
     45 H           9.5786    0.6612    0.0000 H       1  UNL1        0.0235
     46 H           8.7343    0.8980    0.0000 H       1  UNL1        0.0235
     47 H           7.5348   -1.1252    0.0000 H       1  UNL1        0.0235
     48 H           8.1476   -1.7524    0.0000 H       1  UNL1        0.0235
     49 H           8.7747   -1.1396    0.0000 H       1  UNL1        0.0235
     50 H           8.1845    2.5358    0.0000 H       1  UNL1        0.2921
@<TRIPOS>BOND
     1     1    11    2
     2     2    19    1
     3     2    50    1
     4     3     4    1
     5     3     5    1
     6     3     7    1
     7     3    23    1
     8     4     6    1
     9     4     8    1
    10     4    13    1
    11     5    11    1
    12     5    14    1
    13     5    15    1
    14     6     9    1
    15     6    24    1
    16     6    25    1
    17     7    10    1
    18     7    26    1
    19     7    27    1
    20     8    12   ar
    21     8    17   ar
    22     9    11    1
    23     9    28    1
    24     9    29    1
    25    10    12    1
    26    10    30    1
    27    10    31    1
    28    12    16   ar
    29    13    32    1
    30    13    33    1
    31    13    34    1
    32    14    35    1
    33    14    36    1
    34    14    37    1
    35    15    38    1
    36    15    39    1
    37    15    40    1
    38    16    18    1
    39    16    19   ar
    40    17    20   ar
    41    17    41    1
    42    18    21    1
    43    18    22    1
    44    18    42    1
    45    19    20   ar
    46    20    43    1
    47    21    44    1
    48    21    45    1
    49    21    46    1
    50    22    47    1
    51    22    48    1
    52    22    49    1
