@<TRIPOS>MOLECULE
IMPHY013551
 58 57 0 0 0
SMALL
GASTEIGER

@<TRIPOS>ATOM
      1 O          11.1972   -0.5950    0.0000 O.3     1  UNL1       -0.3918
      2 O           2.5369    0.4050    0.0000 O.3     1  UNL1       -0.3950
      3 O          18.9914    0.9050    0.0000 O.3     1  UNL1       -0.4806
      4 O          18.1254   -0.5950    0.0000 O.2     1  UNL1       -0.2510
      5 C          11.1972    0.4050    0.0000 C.3     1  UNL1        0.0553
      6 C          10.3312    0.9050    0.0000 C.3     1  UNL1       -0.0269
      7 C          12.0632    0.9050    0.0000 C.3     1  UNL1       -0.0269
      8 C           9.4651    0.4050    0.0000 C.3     1  UNL1       -0.0507
      9 C           8.5991    0.9050    0.0000 C.3     1  UNL1       -0.0530
     10 C          12.9292    0.4050    0.0000 C.3     1  UNL1       -0.0507
     11 C           7.7331    0.4050    0.0000 C.3     1  UNL1       -0.0531
     12 C          13.7953    0.9050    0.0000 C.3     1  UNL1       -0.0530
     13 C           6.8671    0.9050    0.0000 C.3     1  UNL1       -0.0531
     14 C          14.6613    0.4050    0.0000 C.3     1  UNL1       -0.0530
     15 C           6.0010    0.4050    0.0000 C.3     1  UNL1       -0.0530
     16 C          15.5273    0.9050    0.0000 C.3     1  UNL1       -0.0526
     17 C           5.1350    0.9050    0.0000 C.3     1  UNL1       -0.0510
     18 C          16.3933    0.4050    0.0000 C.3     1  UNL1       -0.0430
     19 C           4.2690    0.4050    0.0000 C.3     1  UNL1       -0.0297
     20 C          17.2594    0.9050    0.0000 C.3     1  UNL1        0.0448
     21 C           3.4030    0.9050    0.0000 C.3     1  UNL1        0.0442
     22 C          18.1254    0.4050    0.0000 C.2     1  UNL1        0.3047
     23 H          10.6603    0.0950    0.0000 H       1  UNL1        0.0593
     24 H          10.7297    1.3800    0.0000 H       1  UNL1        0.0290
     25 H           9.9326    1.3800    0.0000 H       1  UNL1        0.0290
     26 H          12.4617    1.3800    0.0000 H       1  UNL1        0.0290
     27 H          11.6647    1.3800    0.0000 H       1  UNL1        0.0290
     28 H           9.0666   -0.0699    0.0000 H       1  UNL1        0.0266
     29 H           9.8637   -0.0699    0.0000 H       1  UNL1        0.0266
     30 H           8.9976    1.3800    0.0000 H       1  UNL1        0.0265
     31 H           8.2006    1.3800    0.0000 H       1  UNL1        0.0265
     32 H          12.5307   -0.0699    0.0000 H       1  UNL1        0.0266
     33 H          13.3278   -0.0699    0.0000 H       1  UNL1        0.0266
     34 H           7.3346   -0.0699    0.0000 H       1  UNL1        0.0265
     35 H           8.1316   -0.0699    0.0000 H       1  UNL1        0.0265
     36 H          14.1938    1.3800    0.0000 H       1  UNL1        0.0265
     37 H          13.3967    1.3800    0.0000 H       1  UNL1        0.0265
     38 H           7.2656    1.3800    0.0000 H       1  UNL1        0.0265
     39 H           6.4685    1.3800    0.0000 H       1  UNL1        0.0265
     40 H          14.2628   -0.0699    0.0000 H       1  UNL1        0.0265
     41 H          15.0598   -0.0699    0.0000 H       1  UNL1        0.0265
     42 H           5.6025   -0.0699    0.0000 H       1  UNL1        0.0265
     43 H           6.3996   -0.0699    0.0000 H       1  UNL1        0.0265
     44 H          15.9258    1.3800    0.0000 H       1  UNL1        0.0265
     45 H          15.1288    1.3800    0.0000 H       1  UNL1        0.0265
     46 H           5.5335    1.3800    0.0000 H       1  UNL1        0.0266
     47 H           4.7365    1.3800    0.0000 H       1  UNL1        0.0266
     48 H          15.9948   -0.0699    0.0000 H       1  UNL1        0.0270
     49 H          16.7919   -0.0699    0.0000 H       1  UNL1        0.0270
     50 H          10.6603   -0.9050    0.0000 H       1  UNL1        0.2098
     51 H           3.8705   -0.0699    0.0000 H       1  UNL1        0.0287
     52 H           4.6675   -0.0699    0.0000 H       1  UNL1        0.0287
     53 H          17.6579    1.3800    0.0000 H       1  UNL1        0.0377
     54 H          16.8608    1.3800    0.0000 H       1  UNL1        0.0377
     55 H           3.8015    1.3800    0.0000 H       1  UNL1        0.0557
     56 H           3.0044    1.3800    0.0000 H       1  UNL1        0.0557
     57 H           2.0000    0.7150    0.0000 H       1  UNL1        0.2094
     58 H          19.5284    0.5950    0.0000 H       1  UNL1        0.2951
@<TRIPOS>BOND
     1     1     5    1
     2     1    50    1
     3     2    21    1
     4     2    57    1
     5     3    22    1
     6     3    58    1
     7     4    22    2
     8     5     6    1
     9     5     7    1
    10     5    23    1
    11     6     8    1
    12     6    24    1
    13     6    25    1
    14     7    10    1
    15     7    26    1
    16     7    27    1
    17     8     9    1
    18     8    28    1
    19     8    29    1
    20     9    11    1
    21     9    30    1
    22     9    31    1
    23    10    12    1
    24    10    32    1
    25    10    33    1
    26    11    13    1
    27    11    34    1
    28    11    35    1
    29    12    14    1
    30    12    36    1
    31    12    37    1
    32    13    15    1
    33    13    38    1
    34    13    39    1
    35    14    16    1
    36    14    40    1
    37    14    41    1
    38    15    17    1
    39    15    42    1
    40    15    43    1
    41    16    18    1
    42    16    44    1
    43    16    45    1
    44    17    19    1
    45    17    46    1
    46    17    47    1
    47    18    20    1
    48    18    48    1
    49    18    49    1
    50    19    21    1
    51    19    51    1
    52    19    52    1
    53    20    22    1
    54    20    53    1
    55    20    54    1
    56    21    55    1
    57    21    56    1
