@<TRIPOS>MOLECULE
IMPHY000456
 22 21 0 0 0
SMALL
GASTEIGER

@<TRIPOS>ATOM
      1 C1       2482.6700 2500.0500    0.0000 C.3     1  <1>         0.1834
      2 N1       2517.3300 2520.0100    0.0000 N.am    1  <1>        -0.1969
      3 C2       2551.9900 2500.0500    0.0000 C.2     1  <1>         0.2418
      4 C3       2586.6600 2520.0100    0.0000 C.3     1  <1>         0.0889
      5 C4       2621.3200 2500.0500    0.0000 C.3     1  <1>         0.0402
      6 C5       2655.9800 2520.0100    0.0000 C.3     1  <1>         0.1948
      7 C6       2690.6400 2500.0500    0.0000 C.2     1  <1>         0.3819
      8 O1       2725.3000 2520.0100    0.0000 O.co2   1  <1>        -0.2441
      9 O2       2690.6400 2460.0200    0.0000 O.co2   1  <1>        -0.2441
     10 N2       2655.9800 2560.0400    0.0000 N.3     1  <1>        -0.1208
     11 O3       2551.9900 2460.0200    0.0000 O.2     1  <1>        -0.2733
     12 C7       2448.0100 2520.0100    0.0000 C.2     1  <1>         0.2621
     13 N3       2413.3400 2500.0500    0.0000 N.am    1  <1>        -0.2034
     14 C8       2378.6800 2520.0100    0.0000 C.3     1  <1>         0.1270
     15 C9       2344.0200 2500.0500    0.0000 C.3     1  <1>         0.1374
     16 C10      2309.3600 2520.0100    0.0000 C.2     1  <1>         0.3667
     17 O4       2274.7000 2500.0500    0.0000 O.co2   1  <1>        -0.2456
     18 O5       2309.3600 2560.0400    0.0000 O.co2   1  <1>        -0.2456
     19 O6       2448.0100 2560.0400    0.0000 O.2     1  <1>        -0.2715
     20 C11      2482.6700 2460.0200    0.0000 C.3     1  <1>         0.0886
     21 S1       2448.0100 2439.9600    0.0000 S.3     1  <1>        -0.1370
     22 C12      2406.5900 2463.9000    0.0000 C.3     1  <1>         0.0692
@<TRIPOS>BOND
     1     1     2    1
     2     1    12    1
     3     1    20    1
     4     2     3   am
     5     3     4    1
     6     3    11    2
     7     4     5    1
     8     6     5    1
     9     6     7    1
    10     6    10    1
    11     7     8   ar
    12     7     9   ar
    13    12    13   am
    14    12    19    2
    15    13    14    1
    16    14    15    1
    17    15    16    1
    18    16    17   ar
    19    16    18   ar
    20    20    21    1
    21    21    22    1
