@<TRIPOS>MOLECULE
IMPHY003481
 25 24 0 0 0
SMALL
GASTEIGER

@<TRIPOS>ATOM
      1 O           2.0000    0.1900    0.0000 O.2     1  UNL1       -0.3007
      2 C           3.7320    0.1900    0.0000 C.3     1  UNL1        0.0142
      3 C           4.5981    0.6900    0.0000 C.3     1  UNL1       -0.0438
      4 C           5.4641    0.1900    0.0000 C.3     1  UNL1       -0.0527
      5 C           3.7320   -0.8100    0.0000 C.3     1  UNL1       -0.0466
      6 C           6.3301    0.6900    0.0000 C.3     1  UNL1       -0.0559
      7 C           2.8660    0.6900    0.0000 C.2     1  UNL1        0.1234
      8 C           4.5981   -1.3100    0.0000 C.3     1  UNL1       -0.0646
      9 C           7.1962    0.1900    0.0000 C.3     1  UNL1       -0.0653
     10 H           3.7320    1.0400    0.0000 H       1  UNL1        0.0374
     11 H           4.9966    1.1650    0.0000 H       1  UNL1        0.0272
     12 H           4.1996    1.1650    0.0000 H       1  UNL1        0.0272
     13 H           5.0656   -0.2849    0.0000 H       1  UNL1        0.0265
     14 H           5.8626   -0.2849    0.0000 H       1  UNL1        0.0265
     15 H           3.1215   -0.7023    0.0000 H       1  UNL1        0.0269
     16 H           3.5200   -1.3926    0.0000 H       1  UNL1        0.0269
     17 H           6.7287    1.1650    0.0000 H       1  UNL1        0.0263
     18 H           5.9316    1.1650    0.0000 H       1  UNL1        0.0263
     19 H           2.8660    1.3100    0.0000 H       1  UNL1        0.1029
     20 H           4.2881   -1.8469    0.0000 H       1  UNL1        0.0230
     21 H           5.1350   -1.6200    0.0000 H       1  UNL1        0.0230
     22 H           4.9081   -0.7731    0.0000 H       1  UNL1        0.0230
     23 H           6.8862   -0.3469    0.0000 H       1  UNL1        0.0230
     24 H           7.7331   -0.1200    0.0000 H       1  UNL1        0.0230
     25 H           7.5062    0.7269    0.0000 H       1  UNL1        0.0230
@<TRIPOS>BOND
     1     1     7    2
     2     2     3    1
     3     2     5    1
     4     2     7    1
     5     2    10    1
     6     3     4    1
     7     3    11    1
     8     3    12    1
     9     4     6    1
    10     4    13    1
    11     4    14    1
    12     5     8    1
    13     5    15    1
    14     5    16    1
    15     6     9    1
    16     6    17    1
    17     6    18    1
    18     7    19    1
    19     8    20    1
    20     8    21    1
    21     8    22    1
    22     9    23    1
    23     9    24    1
    24     9    25    1
