@<TRIPOS>MOLECULE
IMPHY013158
 101 106 0 0 0
SMALL
GASTEIGER

@<TRIPOS>ATOM
      1 O           6.8671   -3.1941    0.0000 O.3     1  UNL1       -0.3445
      2 O           8.6209    6.0853    0.0000 O.3     1  UNL1       -0.4802
      3 O           9.3112   -2.5024    0.0000 O.2     1  UNL1       -0.3004
      4 O           9.5042    4.5954    0.0000 O.2     1  UNL1       -0.2504
      5 O           5.1350   -3.1941    0.0000 O.3     1  UNL1       -0.3405
      6 O           6.8671   -5.1941    0.0000 O.3     1  UNL1       -0.3841
      7 O           5.1350   -6.1941    0.0000 O.3     1  UNL1       -0.3864
      8 O           3.4030   -5.1941    0.0000 O.3     1  UNL1       -0.3865
      9 O           2.5369   -3.6941    0.0000 O.3     1  UNL1       -0.3924
     10 C           7.7681    1.5061    0.0000 C.3     1  UNL1       -0.0194
     11 C           6.9040    1.0028    0.0000 C.3     1  UNL1       -0.0257
     12 C           6.8920   -0.0388    0.0000 C.3     1  UNL1       -0.0246
     13 C           7.7643    2.5061    0.0000 C.3     1  UNL1       -0.0051
     14 C           7.7920   -0.5631    0.0000 C.3     1  UNL1       -0.0211
     15 C           8.6801    1.0028    0.0000 C.3     1  UNL1       -0.0463
     16 C           6.8963    3.0027    0.0000 C.2     1  UNL1       -0.0629
     17 C           8.6921   -0.0388    0.0000 C.3     1  UNL1       -0.0482
     18 C           7.8046   -1.6480    0.0000 C.3     1  UNL1        0.0526
     19 C           6.8762    4.0442    0.0000 C.3     1  UNL1       -0.0031
     20 C           6.0361    1.4994    0.0000 C.3     1  UNL1       -0.0306
     21 C           8.6723    3.0164    0.0000 C.3     1  UNL1       -0.0424
     22 C           5.9421   -0.5631    0.0000 C.3     1  UNL1       -0.0447
     23 C           7.7722    4.5754    0.0000 C.3     1  UNL1        0.0741
     24 C           8.7522    1.6835    0.0000 C.3     1  UNL1       -0.0585
     25 C           8.6763    4.0580    0.0000 C.3     1  UNL1       -0.0359
     26 C           6.0322    2.4994    0.0000 C.2     1  UNL1       -0.0836
     27 C           6.8671   -2.1941    0.0000 C.3     1  UNL1        0.0738
     28 C           6.0279    0.4645    0.0000 C.3     1  UNL1       -0.0590
     29 C           5.9295   -1.6480    0.0000 C.3     1  UNL1       -0.0251
     30 C           8.7497    2.3362    0.0000 C.3     1  UNL1       -0.0553
     31 C           5.9223    4.5611    0.0000 C.3     1  UNL1       -0.0403
     32 C           7.7764    5.6604    0.0000 C.3     1  UNL1       -0.0362
     33 C           5.9014    5.6459    0.0000 C.3     1  UNL1       -0.0343
     34 C           6.8347    6.1992    0.0000 C.3     1  UNL1       -0.0468
     35 C           8.8046   -1.6403    0.0000 C.3     1  UNL1       -0.0504
     36 C           8.3113   -2.5102    0.0000 C.2     1  UNL1        0.1289
     37 C           8.6324    5.0854    0.0000 C.2     1  UNL1        0.3115
     38 C           5.3881    6.5041    0.0000 C.3     1  UNL1       -0.0598
     39 C           4.9015    5.6305    0.0000 C.3     1  UNL1       -0.0598
     40 C           6.0010   -3.6941    0.0000 C.3     1  UNL1        0.1882
     41 C           6.0010   -4.6941    0.0000 C.3     1  UNL1        0.1341
     42 C           5.1350   -5.1941    0.0000 C.3     1  UNL1        0.1141
     43 C           4.2690   -3.6941    0.0000 C.3     1  UNL1        0.1130
     44 C           4.2690   -4.6941    0.0000 C.3     1  UNL1        0.1119
     45 C           3.4030   -3.1941    0.0000 C.3     1  UNL1        0.0730
     46 H           7.4398    0.6907    0.0000 H       1  UNL1        0.0315
     47 H           8.3314   -0.8689    0.0000 H       1  UNL1        0.0316
     48 H           9.2921    0.9037    0.0000 H       1  UNL1        0.0271
     49 H           8.8824    1.5888    0.0000 H       1  UNL1        0.0271
     50 H           8.9079   -0.6200    0.0000 H       1  UNL1        0.0269
     51 H           9.3017    0.0743    0.0000 H       1  UNL1        0.0269
     52 H           6.3466    3.7218    0.0000 H       1  UNL1        0.0357
     53 H           5.4251    1.6047    0.0000 H       1  UNL1        0.0310
     54 H           5.8263    0.9160    0.0000 H       1  UNL1        0.0310
     55 H           8.8791    2.4319    0.0000 H       1  UNL1        0.0274
     56 H           9.2836    3.1202    0.0000 H       1  UNL1        0.0274
     57 H           5.7398    0.0230    0.0000 H       1  UNL1        0.0271
     58 H           5.3300   -0.6621    0.0000 H       1  UNL1        0.0271
     59 H           8.8623    1.0734    0.0000 H       1  UNL1        0.0235
     60 H           9.3624    1.7936    0.0000 H       1  UNL1        0.0235
     61 H           8.6422    2.2937    0.0000 H       1  UNL1        0.0235
     62 H           9.2868    3.9496    0.0000 H       1  UNL1        0.0276
     63 H           8.8876    4.6409    0.0000 H       1  UNL1        0.0276
     64 H           5.4941    2.8073    0.0000 H       1  UNL1        0.0572
     65 H           7.4046   -2.5031    0.0000 H       1  UNL1        0.0606
     66 H           6.3400    1.0003    0.0000 H       1  UNL1        0.0235
     67 H           5.4922    0.7766    0.0000 H       1  UNL1        0.0235
     68 H           5.7158   -0.0712    0.0000 H       1  UNL1        0.0235
     69 H           5.3199   -1.5349    0.0000 H       1  UNL1        0.0291
     70 H           5.7137   -2.2292    0.0000 H       1  UNL1        0.0291
     71 H           8.6444    1.7252    0.0000 H       1  UNL1        0.0238
     72 H           9.3607    2.2309    0.0000 H       1  UNL1        0.0238
     73 H           8.8550    2.9472    0.0000 H       1  UNL1        0.0238
     74 H           5.3095    4.6554    0.0000 H       1  UNL1        0.0276
     75 H           5.7246    3.9735    0.0000 H       1  UNL1        0.0276
     76 H           8.3869    5.5519    0.0000 H       1  UNL1        0.0276
     77 H           7.9877    6.2433    0.0000 H       1  UNL1        0.0276
     78 H           7.2302    6.6767    0.0000 H       1  UNL1        0.0271
     79 H           6.4319    6.6706    0.0000 H       1  UNL1        0.0271
     80 H           8.8094   -2.2603    0.0000 H       1  UNL1        0.0240
     81 H           9.4246   -1.6355    0.0000 H       1  UNL1        0.0240
     82 H           8.7998   -1.0203    0.0000 H       1  UNL1        0.0240
     83 H           8.0054   -3.0495    0.0000 H       1  UNL1        0.1033
     84 H           5.9202    6.8224    0.0000 H       1  UNL1        0.0235
     85 H           5.0699    7.0362    0.0000 H       1  UNL1        0.0235
     86 H           4.8560    6.1859    0.0000 H       1  UNL1        0.0235
     87 H           4.8920    6.2504    0.0000 H       1  UNL1        0.0235
     88 H           4.2816    5.6209    0.0000 H       1  UNL1        0.0235
     89 H           4.9111    5.0106    0.0000 H       1  UNL1        0.0235
     90 H           6.0010   -3.0741    0.0000 H       1  UNL1        0.0937
     91 H           9.1542    6.4015    0.0000 H       1  UNL1        0.2951
     92 H           6.0010   -5.3141    0.0000 H       1  UNL1        0.0671
     93 H           4.5981   -5.5041    0.0000 H       1  UNL1        0.0648
     94 H           4.2690   -3.0741    0.0000 H       1  UNL1        0.0647
     95 H           4.2690   -5.3141    0.0000 H       1  UNL1        0.0647
     96 H           6.8671   -5.8141    0.0000 H       1  UNL1        0.2101
     97 H           3.8015   -2.7192    0.0000 H       1  UNL1        0.0584
     98 H           3.0044   -2.7192    0.0000 H       1  UNL1        0.0584
     99 H           4.5981   -6.5041    0.0000 H       1  UNL1        0.2100
    100 H           3.4030   -5.8141    0.0000 H       1  UNL1        0.2100
    101 H           2.0000   -3.3841    0.0000 H       1  UNL1        0.2095
@<TRIPOS>BOND
     1     1    27    1
     2     1    40    1
     3     2    37    1
     4     2    91    1
     5     3    36    2
     6     4    37    2
     7     5    40    1
     8     5    43    1
     9     6    41    1
    10     6    96    1
    11     7    42    1
    12     7    99    1
    13     8    44    1
    14     8   100    1
    15     9    45    1
    16     9   101    1
    17    10    11    1
    18    10    13    1
    19    10    15    1
    20    10    24    1
    21    11    12    1
    22    11    20    1
    23    11    46    1
    24    12    14    1
    25    12    22    1
    26    12    28    1
    27    13    16    1
    28    13    21    1
    29    13    30    1
    30    14    17    1
    31    14    18    1
    32    14    47    1
    33    15    17    1
    34    15    48    1
    35    15    49    1
    36    16    19    1
    37    16    26    2
    38    17    50    1
    39    17    51    1
    40    18    27    1
    41    18    35    1
    42    18    36    1
    43    19    23    1
    44    19    31    1
    45    19    52    1
    46    20    26    1
    47    20    53    1
    48    20    54    1
    49    21    25    1
    50    21    55    1
    51    21    56    1
    52    22    29    1
    53    22    57    1
    54    22    58    1
    55    23    25    1
    56    23    32    1
    57    23    37    1
    58    24    59    1
    59    24    60    1
    60    24    61    1
    61    25    62    1
    62    25    63    1
    63    26    64    1
    64    27    29    1
    65    27    65    1
    66    28    66    1
    67    28    67    1
    68    28    68    1
    69    29    69    1
    70    29    70    1
    71    30    71    1
    72    30    72    1
    73    30    73    1
    74    31    33    1
    75    31    74    1
    76    31    75    1
    77    32    34    1
    78    32    76    1
    79    32    77    1
    80    33    34    1
    81    33    38    1
    82    33    39    1
    83    34    78    1
    84    34    79    1
    85    35    80    1
    86    35    81    1
    87    35    82    1
    88    36    83    1
    89    38    84    1
    90    38    85    1
    91    38    86    1
    92    39    87    1
    93    39    88    1
    94    39    89    1
    95    40    41    1
    96    40    90    1
    97    41    42    1
    98    41    92    1
    99    42    44    1
   100    42    93    1
   101    43    44    1
   102    43    45    1
   103    43    94    1
   104    44    95    1
   105    45    97    1
   106    45    98    1
