@<TRIPOS>MOLECULE
IMPHY004857
 26 28 0 0 0
SMALL
GASTEIGER

@<TRIPOS>ATOM
      1 N           3.5298   -1.9266    0.0000 N.ar    1  UNL1       -0.2677
      2 N           4.4809   -2.2356    0.0000 N.ar    1  UNL1       -0.1788
      3 C           2.5836   -0.6219    0.0000 C.3     1  UNL1       -0.0085
      4 C           3.5298   -0.9266    0.0000 C.ar    1  UNL1        0.0470
      5 C           2.0000   -1.4266    0.0000 C.3     1  UNL1       -0.0279
      6 C           2.5836   -2.2313    0.0000 C.3     1  UNL1        0.0422
      7 C           4.4809   -0.6176    0.0000 C.ar    1  UNL1        0.0227
      8 C           5.0687   -1.4266    0.0000 C.ar    1  UNL1        0.0574
      9 C           4.7899    0.3335    0.0000 C.ar    1  UNL1       -0.0147
     10 C           5.7680    0.5414    0.0000 C.ar    1  UNL1       -0.0539
     11 C           4.1208    1.0766    0.0000 C.ar    1  UNL1       -0.0539
     12 C           6.0771    1.4925    0.0000 C.ar    1  UNL1       -0.0612
     13 C           4.4298    2.0277    0.0000 C.ar    1  UNL1       -0.0612
     14 C           5.4079    2.2356    0.0000 C.ar    1  UNL1       -0.0617
     15 H           2.8346   -0.0549    0.0000 H       1  UNL1        0.0329
     16 H           2.0462   -0.3126    0.0000 H       1  UNL1        0.0329
     17 H           1.5391   -1.0119    0.0000 H       1  UNL1        0.0287
     18 H           1.5391   -1.8413    0.0000 H       1  UNL1        0.0287
     19 H           2.0462   -2.5405    0.0000 H       1  UNL1        0.0509
     20 H           2.8346   -2.7982    0.0000 H       1  UNL1        0.0509
     21 H           5.6887   -1.4266    0.0000 H       1  UNL1        0.0854
     22 H           6.1829    0.0807    0.0000 H       1  UNL1        0.0624
     23 H           3.5143    0.9477    0.0000 H       1  UNL1        0.0624
     24 H           6.6835    1.6214    0.0000 H       1  UNL1        0.0618
     25 H           4.0149    2.4884    0.0000 H       1  UNL1        0.0618
     26 H           5.5995    2.8253    0.0000 H       1  UNL1        0.0618
@<TRIPOS>BOND
     1     1     2   ar
     2     1     4   ar
     3     1     6    1
     4     2     8   ar
     5     3     4    1
     6     3     5    1
     7     3    15    1
     8     3    16    1
     9     4     7   ar
    10     5     6    1
    11     5    17    1
    12     5    18    1
    13     6    19    1
    14     6    20    1
    15     7     8   ar
    16     7     9    1
    17     8    21    1
    18     9    10   ar
    19     9    11   ar
    20    10    12   ar
    21    10    22    1
    22    11    13   ar
    23    11    23    1
    24    12    14   ar
    25    12    24    1
    26    13    14   ar
    27    13    25    1
    28    14    26    1
