@<TRIPOS>MOLECULE
IMPHY016975
 28 28 0 0 0
SMALL
GASTEIGER

@<TRIPOS>ATOM
      1 O           6.0010   -1.5000    0.0000 O.3     1  UNL1       -0.4914
      2 O           4.2690   -2.5000    0.0000 O.3     1  UNL1       -0.4913
      3 O           2.5369    0.5000    0.0000 O.3     1  UNL1       -0.5064
      4 C           4.2690    0.5000    0.0000 C.ar    1  UNL1        0.0014
      5 C           4.2690    1.5000    0.0000 C.3     1  UNL1       -0.0062
      6 C           5.1350   -0.0000    0.0000 C.ar    1  UNL1       -0.0094
      7 C           3.4030    0.0000    0.0000 C.ar    1  UNL1        0.1240
      8 C           5.1350   -1.0000    0.0000 C.ar    1  UNL1        0.1620
      9 C           4.2690   -1.5000    0.0000 C.ar    1  UNL1        0.1650
     10 C           3.4030   -1.0000    0.0000 C.ar    1  UNL1        0.0255
     11 C           5.1350    2.0000    0.0000 C.2     1  UNL1       -0.0867
     12 C           6.8671   -1.0000    0.0000 C.3     1  UNL1        0.0790
     13 C           3.4030   -3.0000    0.0000 C.3     1  UNL1        0.0790
     14 C           5.1350    3.0000    0.0000 C.2     1  UNL1       -0.1023
     15 H           4.0569    2.0826    0.0000 H       1  UNL1        0.0357
     16 H           3.6584    1.3923    0.0000 H       1  UNL1        0.0357
     17 H           5.6720    0.3100    0.0000 H       1  UNL1        0.0659
     18 H           2.8660   -1.3100    0.0000 H       1  UNL1        0.0692
     19 H           5.6720    1.6900    0.0000 H       1  UNL1        0.0570
     20 H           2.0000    0.1900    0.0000 H       1  UNL1        0.2921
     21 H           7.1771   -1.5369    0.0000 H       1  UNL1        0.0660
     22 H           7.4040   -0.6900    0.0000 H       1  UNL1        0.0660
     23 H           6.5571   -0.4631    0.0000 H       1  UNL1        0.0660
     24 H           3.0930   -2.4631    0.0000 H       1  UNL1        0.0660
     25 H           2.8660   -3.3100    0.0000 H       1  UNL1        0.0660
     26 H           3.7130   -3.5369    0.0000 H       1  UNL1        0.0660
     27 H           5.6720    3.3100    0.0000 H       1  UNL1        0.0532
     28 H           4.5981    3.3100    0.0000 H       1  UNL1        0.0532
@<TRIPOS>BOND
     1     1     8    1
     2     1    12    1
     3     2     9    1
     4     2    13    1
     5     3     7    1
     6     3    20    1
     7     4     5    1
     8     4     6   ar
     9     4     7   ar
    10     5    11    1
    11     5    15    1
    12     5    16    1
    13     6     8   ar
    14     6    17    1
    15     7    10   ar
    16     8     9   ar
    17     9    10   ar
    18    10    18    1
    19    11    14    2
    20    11    19    1
    21    12    21    1
    22    12    22    1
    23    12    23    1
    24    13    24    1
    25    13    25    1
    26    13    26    1
    27    14    27    1
    28    14    28    1
