@<TRIPOS>MOLECULE
IMPHY014441
 83 88 0 0 0
SMALL
GASTEIGER

@<TRIPOS>ATOM
      1 O           8.0515    4.1774    0.0000 O.3     1  UNL1       -0.4445
      2 O           6.3195    5.1774    0.0000 O.3     1  UNL1       -0.4445
      3 O           4.5493    4.1806    0.0000 O.3     1  UNL1       -0.5032
      4 O           9.8217    5.1743    0.0000 O.3     1  UNL1       -0.5032
      5 O          11.1134    5.6046    0.0000 O.3     1  UNL1       -0.4524
      6 O          10.1051    5.9365    0.0000 O.3     1  UNL1       -0.5033
      7 O           0.5369    5.4705    0.0000 O.3     1  UNL1       -0.3982
      8 O           7.6546   11.4238    0.0000 O.3     2  HOH2       -0.4105
      9 N           8.1702    1.0304    0.0000 N.3     1  UNL1       -0.2977
     10 N           6.2008    8.3244    0.0000 N.3     1  UNL1       -0.2977
     11 C           8.1535    2.1153    0.0000 C.3     1  UNL1        0.0432
     12 C           6.2175    7.2396    0.0000 C.3     1  UNL1        0.0432
     13 C           7.2016    2.6359    0.0000 C.ar    1  UNL1        0.0194
     14 C           7.1695    6.7189    0.0000 C.ar    1  UNL1        0.0194
     15 C           6.3035    2.1082    0.0000 C.ar    1  UNL1       -0.0343
     16 C           8.0675    7.2467    0.0000 C.ar    1  UNL1       -0.0343
     17 C           7.2348    0.4807    0.0000 C.3     1  UNL1        0.0032
     18 C           6.2952    1.0232    0.0000 C.3     1  UNL1       -0.0143
     19 C           7.1362    8.8742    0.0000 C.3     1  UNL1        0.0032
     20 C           8.0759    8.3317    0.0000 C.3     1  UNL1       -0.0143
     21 C           7.1855    3.6774    0.0000 C.ar    1  UNL1        0.1794
     22 C           7.1855    5.6774    0.0000 C.ar    1  UNL1        0.1794
     23 C           9.1823    2.2787    0.0000 C.3     1  UNL1       -0.0076
     24 C           7.0974    7.7973    0.0000 C.3     1  UNL1       -0.0078
     25 C           6.3195    4.1774    0.0000 C.ar    1  UNL1        0.2120
     26 C           8.0515    5.1774    0.0000 C.ar    1  UNL1        0.2120
     27 C           5.4015    2.6290    0.0000 C.ar    1  UNL1       -0.0127
     28 C           8.9696    6.7259    0.0000 C.ar    1  UNL1       -0.0127
     29 C           9.0420    0.5405    0.0000 C.3     1  UNL1       -0.0122
     30 C           5.4095    3.6706    0.0000 C.ar    1  UNL1        0.1631
     31 C           5.3291    8.8144    0.0000 C.3     1  UNL1       -0.0122
     32 C           8.9615    5.6843    0.0000 C.ar    1  UNL1        0.1631
     33 C          10.0903    2.7894    0.0000 C.ar    1  UNL1       -0.0419
     34 C           8.1162    8.0145    0.0000 C.ar    1  UNL1       -0.0453
     35 C          10.7642    3.5838    0.0000 C.ar    1  UNL1       -0.0124
     36 C           8.9559    7.4708    0.0000 C.ar    1  UNL1       -0.0550
     37 C           9.1470    7.8641    0.0000 C.ar    1  UNL1       -0.0550
     38 C           9.3036    3.4056    0.0000 C.ar    1  UNL1       -0.0548
     39 C          11.1200    4.5629    0.0000 C.ar    1  UNL1        0.1698
     40 C           9.8338    6.9914    0.0000 C.ar    1  UNL1       -0.0191
     41 C          10.0614    7.3649    0.0000 C.ar    1  UNL1       -0.0191
     42 C          10.7452    6.5791    0.0000 C.ar    1  UNL1        0.1286
     43 C           9.3522    4.4036    0.0000 C.ar    1  UNL1       -0.0162
     44 C          10.1949    4.9406    0.0000 C.ar    1  UNL1        0.1591
     45 C           1.4030    5.9705    0.0000 C.3     1  UNL1        0.0330
     46 H           8.8993    1.7074    0.0000 H       1  UNL1        0.0516
     47 H           5.3680    7.2122    0.0000 H       1  UNL1        0.0516
     48 H           6.8375    0.0047    0.0000 H       1  UNL1        0.0430
     49 H           7.6358    0.0078    0.0000 H       1  UNL1        0.0430
     50 H           5.6852    1.1340    0.0000 H       1  UNL1        0.0326
     51 H           6.0816    0.4411    0.0000 H       1  UNL1        0.0326
     52 H           7.5335    9.3501    0.0000 H       1  UNL1        0.0430
     53 H           6.7353    9.3470    0.0000 H       1  UNL1        0.0430
     54 H           8.6859    8.2209    0.0000 H       1  UNL1        0.0326
     55 H           8.2894    8.9137    0.0000 H       1  UNL1        0.0326
     56 H           9.0303    1.6776    0.0000 H       1  UNL1        0.0332
     57 H           8.9785    2.8642    0.0000 H       1  UNL1        0.0332
     58 H           7.2177    8.4055    0.0000 H       1  UNL1        0.0332
     59 H           7.3317    7.2233    0.0000 H       1  UNL1        0.0332
     60 H           4.8633    2.3211    0.0000 H       1  UNL1        0.0658
     61 H           9.5077    7.0338    0.0000 H       1  UNL1        0.0658
     62 H           8.7382    0.0000    0.0000 H       1  UNL1        0.0391
     63 H           9.5825    0.2367    0.0000 H       1  UNL1        0.0391
     64 H           9.3458    1.0810    0.0000 H       1  UNL1        0.0391
     65 H           5.6328    9.3549    0.0000 H       1  UNL1        0.0391
     66 H           4.7886    9.1182    0.0000 H       1  UNL1        0.0391
     67 H           5.0253    8.2739    0.0000 H       1  UNL1        0.0391
     68 H          11.3003    3.2725    0.0000 H       1  UNL1        0.0658
     69 H           8.6386    6.9381    0.0000 H       1  UNL1        0.0621
     70 H           9.3434    8.4522    0.0000 H       1  UNL1        0.0621
     71 H           8.7398    3.1478    0.0000 H       1  UNL1        0.0621
     72 H           4.0088    3.8768    0.0000 H       1  UNL1        0.2923
     73 H           9.8146    4.5543    0.0000 H       1  UNL1        0.2923
     74 H           9.5573    6.4365    0.0000 H       1  UNL1        0.0654
     75 H          10.4499    7.8481    0.0000 H       1  UNL1        0.0654
     76 H           8.8160    4.7149    0.0000 H       1  UNL1        0.0655
     77 H           9.5426    6.1971    0.0000 H       1  UNL1        0.2923
     78 H           1.7130    5.4336    0.0000 H       1  UNL1        0.0521
     79 H           1.9399    6.2805    0.0000 H       1  UNL1        0.0521
     80 H           1.0930    6.5075    0.0000 H       1  UNL1        0.0521
     81 H           0.0000    5.7805    0.0000 H       1  UNL1        0.2090
     82 H           8.1915   11.7338    0.0000 H       0  HOH0        0.2052
     83 H           7.1176   11.7338    0.0000 H       0  HOH0        0.2052
@<TRIPOS>BOND
     1     1    21    1
     2     1    26    1
     3     2    22    1
     4     2    25    1
     5     3    30    1
     6     3    72    1
     7     4    32    1
     8     4    73    1
     9     5    39    1
    10     5    42    1
    11     6    44    1
    12     6    77    1
    13     7    45    1
    14     7    81    1
    15     8    82    1
    16     8    83    1
    17     9    11    1
    18     9    17    1
    19     9    29    1
    20    10    12    1
    21    10    19    1
    22    10    31    1
    23    11    13    1
    24    11    23    1
    25    11    46    1
    26    12    14    1
    27    12    24    1
    28    12    47    1
    29    13    15   ar
    30    13    21   ar
    31    14    16   ar
    32    14    22   ar
    33    15    18    1
    34    15    27   ar
    35    16    20    1
    36    16    28   ar
    37    17    18    1
    38    17    48    1
    39    17    49    1
    40    18    50    1
    41    18    51    1
    42    19    20    1
    43    19    52    1
    44    19    53    1
    45    20    54    1
    46    20    55    1
    47    21    25   ar
    48    22    26   ar
    49    23    33    1
    50    23    56    1
    51    23    57    1
    52    24    34    1
    53    24    58    1
    54    24    59    1
    55    25    30   ar
    56    26    32   ar
    57    27    30   ar
    58    27    60    1
    59    28    32   ar
    60    28    61    1
    61    29    62    1
    62    29    63    1
    63    29    64    1
    64    31    65    1
    65    31    66    1
    66    31    67    1
    67    33    35   ar
    68    33    38   ar
    69    34    36   ar
    70    34    37   ar
    71    35    39   ar
    72    35    68    1
    73    36    40   ar
    74    36    69    1
    75    37    41   ar
    76    37    70    1
    77    38    43   ar
    78    38    71    1
    79    39    44   ar
    80    40    42   ar
    81    40    74    1
    82    41    42   ar
    83    41    75    1
    84    43    44   ar
    85    43    76    1
    86    45    78    1
    87    45    79    1
    88    45    80    1
