@<TRIPOS>MOLECULE
IMPHY003259
 34 36 0 0 0
SMALL
GASTEIGER

@<TRIPOS>ATOM
      1 O           6.0682   -0.6154    0.0000 O.3     1  UNL1       -0.4801
      2 O           7.8003    1.3846    0.0000 O.3     1  UNL1       -0.3798
      3 O           6.0682    2.3846    0.0000 O.2     1  UNL1       -0.2889
      4 O           6.9343   -2.1154    0.0000 O.3     1  UNL1       -0.5063
      5 O           4.3198    2.4192    0.0000 O.3     1  UNL1       -0.5058
      6 O           2.5381   -0.6395    0.0000 O.3     1  UNL1       -0.5065
      7 O          10.3984   -2.1154    0.0000 O.3     1  UNL1       -0.5066
      8 C           6.9343   -0.1154    0.0000 C.3     1  UNL1        0.1614
      9 C           6.9343    0.8846    0.0000 C.3     1  UNL1        0.1586
     10 C           7.8003   -0.6154    0.0000 C.ar    1  UNL1        0.0372
     11 C           6.0682    1.3846    0.0000 C.2     1  UNL1        0.2024
     12 C           5.2022    0.8846    0.0000 C.ar    1  UNL1        0.1033
     13 C           5.2022   -0.1154    0.0000 C.ar    1  UNL1        0.1391
     14 C           7.8003   -1.6154    0.0000 C.ar    1  UNL1        0.1271
     15 C           4.3083    1.4193    0.0000 C.ar    1  UNL1        0.1344
     16 C           8.6663   -0.1154    0.0000 C.ar    1  UNL1       -0.0480
     17 C           4.3083   -0.6501    0.0000 C.ar    1  UNL1        0.0225
     18 C           3.4022    0.9054    0.0000 C.ar    1  UNL1        0.0222
     19 C           3.4022   -0.1362    0.0000 C.ar    1  UNL1        0.1238
     20 C           8.6663   -2.1154    0.0000 C.ar    1  UNL1        0.0217
     21 C           9.5323   -0.6154    0.0000 C.ar    1  UNL1       -0.0196
     22 C           9.5323   -1.6154    0.0000 C.ar    1  UNL1        0.1203
     23 H           6.9343   -0.7354    0.0000 H       1  UNL1        0.0817
     24 H           6.9343    1.5046    0.0000 H       1  UNL1        0.0718
     25 H           8.6663    0.5046    0.0000 H       1  UNL1        0.0624
     26 H           4.3154   -1.2700    0.0000 H       1  UNL1        0.0691
     27 H           7.8003    2.0046    0.0000 H       1  UNL1        0.2105
     28 H           2.8665    1.2175    0.0000 H       1  UNL1        0.0691
     29 H           8.6663   -2.7354    0.0000 H       1  UNL1        0.0691
     30 H          10.0693   -0.3054    0.0000 H       1  UNL1        0.0654
     31 H           6.9343   -2.7354    0.0000 H       1  UNL1        0.2921
     32 H           3.7865    2.7354    0.0000 H       1  UNL1        0.2922
     33 H           2.0000   -0.3316    0.0000 H       1  UNL1        0.2921
     34 H          10.9353   -1.8054    0.0000 H       1  UNL1        0.2921
@<TRIPOS>BOND
     1     1     8    1
     2     1    13    1
     3     2     9    1
     4     2    27    1
     5     3    11    2
     6     4    14    1
     7     4    31    1
     8     5    15    1
     9     5    32    1
    10     6    19    1
    11     6    33    1
    12     7    22    1
    13     7    34    1
    14     8     9    1
    15     8    10    1
    16     8    23    1
    17     9    11    1
    18     9    24    1
    19    10    14   ar
    20    10    16   ar
    21    11    12    1
    22    12    13   ar
    23    12    15   ar
    24    13    17   ar
    25    14    20   ar
    26    15    18   ar
    27    16    21   ar
    28    16    25    1
    29    17    19   ar
    30    17    26    1
    31    18    19   ar
    32    18    28    1
    33    20    22   ar
    34    20    29    1
    35    21    22   ar
    36    21    30    1
