@<TRIPOS>MOLECULE
IMPHY008581
 40 43 0 0 0
SMALL
GASTEIGER

@<TRIPOS>ATOM
      1 O           7.8757    0.6125    0.0000 O.3     1  UNL1       -0.3704
      2 O           7.6089   -1.9525    0.0000 O.3     1  UNL1       -0.3888
      3 O           6.6958    2.2087    0.0000 O.3     1  UNL1       -0.3846
      4 O           5.0782   -3.5106    0.0000 O.3     1  UNL1       -0.5033
      5 O           3.2328   -2.6219    0.0000 O.3     1  UNL1       -0.5033
      6 O           3.5058    3.3786    0.0000 O.3     1  UNL1       -0.5033
      7 O           2.2287    1.7772    0.0000 O.3     1  UNL1       -0.5033
      8 C           6.6629   -0.4490    0.0000 C.3     1  UNL1        0.0419
      9 C           6.8854    0.5259    0.0000 C.3     1  UNL1        0.0979
     10 C           7.5176   -0.9567    0.0000 C.3     1  UNL1        0.0877
     11 C           6.2619    1.3077    0.0000 C.3     1  UNL1        0.1076
     12 C           5.7619   -0.8829    0.0000 C.ar    1  UNL1       -0.0278
     13 C           8.2656   -0.3020    0.0000 C.3     1  UNL1        0.0747
     14 C           5.2619    1.3077    0.0000 C.ar    1  UNL1       -0.0053
     15 C           4.8609   -0.4490    0.0000 C.ar    1  UNL1       -0.0101
     16 C           4.6384    0.5259    0.0000 C.ar    1  UNL1       -0.0081
     17 C           5.8557   -1.9203    0.0000 C.ar    1  UNL1       -0.0123
     18 C           3.9914   -1.0224    0.0000 C.ar    1  UNL1       -0.0085
     19 C           4.8964    2.2831    0.0000 C.ar    1  UNL1       -0.0102
     20 C           3.6062    0.6653    0.0000 C.ar    1  UNL1       -0.0085
     21 C           4.9997   -2.5137    0.0000 C.ar    1  UNL1        0.1585
     22 C           4.0612   -2.0617    0.0000 C.ar    1  UNL1        0.1588
     23 C           3.8676    2.4463    0.0000 C.ar    1  UNL1        0.1586
     24 C           3.2181    1.6319    0.0000 C.ar    1  UNL1        0.1588
     25 H           6.6258   -1.2982    0.0000 H       1  UNL1        0.0401
     26 H           7.2205    1.3071    0.0000 H       1  UNL1        0.0632
     27 H           8.0933   -1.1867    0.0000 H       1  UNL1        0.0623
     28 H           5.9320    1.8327    0.0000 H       1  UNL1        0.0670
     29 H           8.6226   -0.8089    0.0000 H       1  UNL1        0.0586
     30 H           8.8072   -0.0002    0.0000 H       1  UNL1        0.0586
     31 H           6.4174   -2.1828    0.0000 H       1  UNL1        0.0658
     32 H           8.1719   -2.2121    0.0000 H       1  UNL1        0.2099
     33 H           3.4359   -0.7470    0.0000 H       1  UNL1        0.0661
     34 H           5.2885    2.7634    0.0000 H       1  UNL1        0.0659
     35 H           7.3140    2.2550    0.0000 H       1  UNL1        0.2103
     36 H           3.2252    0.1761    0.0000 H       1  UNL1        0.0661
     37 H           4.5673   -3.8618    0.0000 H       1  UNL1        0.2923
     38 H           2.6752   -2.3507    0.0000 H       1  UNL1        0.2923
     39 H           3.8943    3.8618    0.0000 H       1  UNL1        0.2923
     40 H           2.0000    2.3534    0.0000 H       1  UNL1        0.2923
@<TRIPOS>BOND
     1     1     9    1
     2     1    13    1
     3    10     2    1
     4     2    32    1
     5    11     3    1
     6     3    35    1
     7     4    21    1
     8     4    37    1
     9     5    22    1
    10     5    38    1
    11     6    23    1
    12     6    39    1
    13     7    24    1
    14     7    40    1
    15     8     9    1
    16     8    10    1
    17     8    12    1
    18     8    25    1
    19     9    11    1
    20     9    26    1
    21    10    13    1
    22    10    27    1
    23    11    14    1
    24    11    28    1
    25    12    15   ar
    26    12    17   ar
    27    13    29    1
    28    13    30    1
    29    14    16   ar
    30    14    19   ar
    31    15    16    1
    32    15    18   ar
    33    16    20   ar
    34    17    21   ar
    35    17    31    1
    36    18    22   ar
    37    18    33    1
    38    19    23   ar
    39    19    34    1
    40    20    24   ar
    41    20    36    1
    42    21    22   ar
    43    23    24   ar
