@<TRIPOS>MOLECULE
IMPHY010489
 73 76 0 0 0
SMALL
GASTEIGER

@<TRIPOS>ATOM
      1 O           8.9274    2.7705    0.0000 O.3     1  UNL1       -0.3621
      2 O           6.4274    3.6365    0.0000 O.3     1  UNL1       -0.3864
      3 O           6.9274    2.7705    0.0000 O.3     1  UNL1       -0.3736
      4 O           7.4274    5.3686    0.0000 O.3     1  UNL1       -0.3865
      5 O           9.4274    5.3686    0.0000 O.3     1  UNL1       -0.3865
      6 O           2.2522    1.1726    0.0000 O.3     1  UNL1       -0.3869
      7 O           3.7079    2.7894    0.0000 O.3     1  UNL1       -0.3832
      8 O           5.6954    2.9045    0.0000 O.2     1  UNL1       -0.5048
      9 O          10.9275    4.5026    0.0000 O.3     1  UNL1       -0.3924
     10 O           9.1595    1.9045    0.0000 O.2     1  UNL1       -0.2882
     11 O           2.3454   -0.8160    0.0000 O.3     1  UNL1       -0.3931
     12 O           7.4274   -1.0955    0.0000 O.2     1  UNL1       -0.2870
     13 O          10.0255    0.4045    0.0000 O.2     1  UNL1       -0.5059
     14 O          10.0255   -5.5955    0.0000 O.3     1  UNL1       -0.5068
     15 N           4.7248    0.4100    0.0000 N.pl3   1  UNL1       -0.3346
     16 C           7.9274    2.7705    0.0000 C.3     1  UNL1        0.1276
     17 C           7.4274    3.6365    0.0000 C.3     1  UNL1        0.1130
     18 C           7.4274    1.9045    0.0000 C.3     1  UNL1        0.1854
     19 C           7.9274    4.5026    0.0000 C.3     1  UNL1        0.1119
     20 C           8.9274    4.5026    0.0000 C.3     1  UNL1        0.1117
     21 C           9.4274    3.6365    0.0000 C.3     1  UNL1        0.1105
     22 C           6.5614    1.4045    0.0000 C.2     1  UNL1        0.0407
     23 C           8.2935    1.4045    0.0000 C.2     1  UNL1        0.2089
     24 C           4.8294    1.4045    0.0000 C.2     1  UNL1        0.0781
     25 CA          3.7467    0.2020    0.0000 C.3     1  UNL1        0.0723
     26 C           3.2467    1.0681    0.0000 C.3     1  UNL1        0.1067
     27 C           3.9158    1.8112    0.0000 C.3     1  UNL1        0.1236
     28 C           5.6954    1.9045    0.0000 C.2     1  UNL1        0.1426
     29 C          10.4275    3.6365    0.0000 C.3     1  UNL1        0.0729
     30 C           6.5614    0.4045    0.0000 C.2     1  UNL1       -0.0042
     31 C           8.2935    0.4045    0.0000 C.2     1  UNL1        0.1086
     32 C           7.4274   -0.0955    0.0000 C.2     1  UNL1        0.1935
     33 C           3.3400   -0.7115    0.0000 C.3     1  UNL1        0.0650
     34 C           9.1595   -0.0955    0.0000 C.2     1  UNL1        0.1311
     35 C           9.1595   -1.0955    0.0000 C.2     1  UNL1       -0.0188
     36 C          10.0255   -1.5955    0.0000 C.2     1  UNL1       -0.0511
     37 C          10.0255   -2.5955    0.0000 C.ar    1  UNL1       -0.0247
     38 C           9.1595   -3.0955    0.0000 C.ar    1  UNL1       -0.0511
     39 C          10.8916   -3.0955    0.0000 C.ar    1  UNL1       -0.0511
     40 C           9.1595   -4.0955    0.0000 C.ar    1  UNL1       -0.0196
     41 C          10.8916   -4.0955    0.0000 C.ar    1  UNL1       -0.0196
     42 C          10.0255   -4.5955    0.0000 C.ar    1  UNL1        0.1169
     43 H           8.3524    2.0344    0.0000 H       1  UNL1        0.0660
     44 H           7.1174    3.0996    0.0000 H       1  UNL1        0.0647
     45 H           8.2375    5.0395    0.0000 H       1  UNL1        0.0647
     46 H           9.5474    4.5026    0.0000 H       1  UNL1        0.0647
     47 H           9.7375    3.0996    0.0000 H       1  UNL1        0.0646
     48 HA          4.1369   -0.2798    0.0000 H       1  UNL1        0.0546
     49 H           3.0245    1.6469    0.0000 H       1  UNL1        0.0642
     50 H           3.3170    1.9717    0.0000 H       1  UNL1        0.0684
     51 H          10.3198    3.0260    0.0000 H       1  UNL1        0.0584
     52 H          11.0101    3.4245    0.0000 H       1  UNL1        0.0584
     53 H           5.1856   -0.0049    0.0000 H       1  UNL1        0.1464
     54 H           6.0245    0.0945    0.0000 H       1  UNL1        0.0661
     55 H           6.1174    4.1735    0.0000 H       1  UNL1        0.2100
     56 H           6.3074    2.7705    0.0000 H       1  UNL1        0.2113
     57 H           7.7374    5.9055    0.0000 H       1  UNL1        0.2100
     58 H           9.1174    5.9055    0.0000 H       1  UNL1        0.2100
     59 H1          3.2967   -1.3300    0.0000 H       1  UNL1        0.0576
     60 H2          3.9416   -0.8615    0.0000 H       1  UNL1        0.0576
     61 H           2.0000    1.7390    0.0000 H       1  UNL1        0.2100
     62 H           3.1183    2.9810    0.0000 H       1  UNL1        0.2104
     63 H           5.1585    3.2145    0.0000 H       1  UNL1        0.2922
     64 H          11.5475    4.5026    0.0000 H       1  UNL1        0.2095
     65 H           2.0933   -1.3824    0.0000 H       1  UNL1        0.2095
     66 H           8.6226   -1.4055    0.0000 H       1  UNL1        0.0654
     67 H          10.5625    0.0945    0.0000 H       1  UNL1        0.2922
     68 H          10.5625   -1.2855    0.0000 H       1  UNL1        0.0625
     69 H           8.6226   -2.7855    0.0000 H       1  UNL1        0.0625
     70 H          11.4285   -2.7855    0.0000 H       1  UNL1        0.0625
     71 H           8.6226   -4.4055    0.0000 H       1  UNL1        0.0654
     72 H          11.4285   -4.4055    0.0000 H       1  UNL1        0.0654
     73 H          10.5625   -5.9055    0.0000 H       1  UNL1        0.2921
@<TRIPOS>BOND
     1     1    16    1
     2     1    21    1
     3    17     2    1
     4     2    55    1
     5     3    18    1
     6     3    56    1
     7    19     4    1
     8     4    57    1
     9    20     5    1
    10     5    58    1
    11    26     6    1
    12     6    61    1
    13    27     7    1
    14     7    62    1
    15     8    28    1
    16     8    63    1
    17     9    29    1
    18     9    64    1
    19    10    23    2
    20    11    33    1
    21    11    65    1
    22    12    32    2
    23    13    34    1
    24    13    67    1
    25    14    42    1
    26    14    73    1
    27    15    24    1
    28    15    25    1
    29    15    53    1
    30    16    17    1
    31    16    18    1
    32    16    43    1
    33    17    19    1
    34    17    44    1
    35    18    22    1
    36    18    23    1
    37    19    20    1
    38    19    45    1
    39    20    21    1
    40    20    46    1
    41    21    29    1
    42    21    47    1
    43    22    28    1
    44    22    30    2
    45    23    31    1
    46    24    27    1
    47    24    28    2
    48    25    26    1
    49    25    33    1
    50    25    48    1
    51    26    27    1
    52    26    49    1
    53    27    50    1
    54    29    51    1
    55    29    52    1
    56    30    32    1
    57    30    54    1
    58    31    32    1
    59    31    34    2
    60    33    59    1
    61    33    60    1
    62    34    35    1
    63    35    36    2
    64    35    66    1
    65    36    37    1
    66    36    68    1
    67    37    38   ar
    68    37    39   ar
    69    38    40   ar
    70    38    69    1
    71    39    41   ar
    72    39    70    1
    73    40    42   ar
    74    40    71    1
    75    41    42   ar
    76    41    72    1
