@<TRIPOS>MOLECULE
IMPHY005032
 24 24 0 0 0
SMALL
GASTEIGER

@<TRIPOS>ATOM
      1 O           3.3660   -2.7694    0.0000 O.2     1  UNL1       -0.4703
      2 O           2.0000    0.2694    0.0000 O.2     1  UNL1       -0.2872
      3 C           4.5981    1.7694    0.0000 C.3     1  UNL1       -0.0282
      4 C           3.7320    1.2694    0.0000 C.2     1  UNL1       -0.0778
      5 C           4.5981    2.7694    0.0000 C.3     1  UNL1       -0.0592
      6 C           5.4641    1.2694    0.0000 C.3     1  UNL1       -0.0592
      7 C           3.7320    0.2694    0.0000 C.2     1  UNL1       -0.0179
      8 C           2.8660   -0.2306    0.0000 C.2     1  UNL1        0.1888
      9 C           2.8660   -1.2306    0.0000 C.ar    1  UNL1        0.0593
     10 C           2.0570   -1.8184    0.0000 C.ar    1  UNL1       -0.0131
     11 C           3.6750   -1.8184    0.0000 C.ar    1  UNL1        0.1025
     12 C           2.3660   -2.7694    0.0000 C.ar    1  UNL1        0.0924
     13 H           4.5981    1.1494    0.0000 H       1  UNL1        0.0338
     14 H           3.1951    1.5794    0.0000 H       1  UNL1        0.0576
     15 H           5.2181    2.7694    0.0000 H       1  UNL1        0.0235
     16 H           4.5981    3.3894    0.0000 H       1  UNL1        0.0235
     17 H           3.9781    2.7694    0.0000 H       1  UNL1        0.0235
     18 H           5.1541    0.7325    0.0000 H       1  UNL1        0.0235
     19 H           6.0010    0.9594    0.0000 H       1  UNL1        0.0235
     20 H           5.7741    1.8064    0.0000 H       1  UNL1        0.0235
     21 H           4.2690   -0.0406    0.0000 H       1  UNL1        0.0653
     22 H           1.4674   -1.6268    0.0000 H       1  UNL1        0.0656
     23 H           4.2647   -1.6268    0.0000 H       1  UNL1        0.1036
     24 H           2.0016   -3.2710    0.0000 H       1  UNL1        0.1029
@<TRIPOS>BOND
     1     1    11   ar
     2     1    12   ar
     3     2     8    2
     4     3     4    1
     5     3     5    1
     6     3     6    1
     7     3    13    1
     8     4     7    2
     9     4    14    1
    10     5    15    1
    11     5    16    1
    12     5    17    1
    13     6    18    1
    14     6    19    1
    15     6    20    1
    16     7     8    1
    17     7    21    1
    18     8     9    1
    19     9    10   ar
    20     9    11   ar
    21    10    12   ar
    22    10    22    1
    23    11    23    1
    24    12    24    1
