@<TRIPOS>MOLECULE
IMPHY009774
 14 15 0 0 0
SMALL
GASTEIGER

@<TRIPOS>ATOM
      1 S           4.6783    0.8047    0.0000 S.2     1  UNL1       -0.0754
      2 N           4.6783   -0.8047    0.0000 N.ar    1  UNL1       -0.2474
      3 C           3.7320    0.5000    0.0000 C.ar    1  UNL1        0.0389
      4 C           3.7320   -0.5000    0.0000 C.ar    1  UNL1        0.0782
      5 C           2.8660    1.0000    0.0000 C.ar    1  UNL1       -0.0459
      6 C           2.8660   -1.0000    0.0000 C.ar    1  UNL1       -0.0352
      7 C           2.0000    0.5000    0.0000 C.ar    1  UNL1       -0.0606
      8 C           2.0000   -0.5000    0.0000 C.ar    1  UNL1       -0.0597
      9 C           5.2619    0.0000    0.0000 C.ar    1  UNL1        0.0659
     10 H           2.8660    1.6200    0.0000 H       1  UNL1        0.0629
     11 H           2.8660   -1.6200    0.0000 H       1  UNL1        0.0639
     12 H           1.4631    0.8100    0.0000 H       1  UNL1        0.0618
     13 H           1.4631   -0.8100    0.0000 H       1  UNL1        0.0618
     14 H           5.8819    0.0000    0.0000 H       1  UNL1        0.0907
@<TRIPOS>BOND
     1     1     3   ar
     2     1     9   ar
     3     2     4   ar
     4     2     9   ar
     5     3     4   ar
     6     3     5   ar
     7     4     6   ar
     8     5     7   ar
     9     5    10    1
    10     6     8   ar
    11     6    11    1
    12     7     8   ar
    13     7    12    1
    14     8    13    1
    15     9    14    1
