@<TRIPOS>MOLECULE
IMPHY002896
 163 162 0 0 0
SMALL
GASTEIGER

@<TRIPOS>ATOM
      1 O          15.8564    1.5600    0.0000 O.3     1  UNL1       -0.4608
      2 O          18.4545    2.0600    0.0000 O.3     1  UNL1       -0.4544
      3 O          16.7224    0.0600    0.0000 O.3     1  UNL1       -0.4608
      4 O          14.9904    3.0600    0.0000 O.2     1  UNL1       -0.2509
      5 O          19.3205    0.5600    0.0000 O.2     1  UNL1       -0.2508
      6 O          17.5885   -1.4400    0.0000 O.2     1  UNL1       -0.2509
      7 C           8.0622    2.0600    0.0000 C.3     1  UNL1       -0.0531
      8 C           8.9282    1.5600    0.0000 C.3     1  UNL1       -0.0531
      9 C           7.1962    1.5600    0.0000 C.3     1  UNL1       -0.0531
     10 C           9.7942    2.0600    0.0000 C.3     1  UNL1       -0.0531
     11 C           6.3301    2.0600    0.0000 C.3     1  UNL1       -0.0531
     12 C          10.6603    1.5600    0.0000 C.3     1  UNL1       -0.0531
     13 C           5.4641    1.5600    0.0000 C.3     1  UNL1       -0.0531
     14 C          11.5263    2.0600    0.0000 C.3     1  UNL1       -0.0530
     15 C           4.5981    2.0600    0.0000 C.3     1  UNL1       -0.0531
     16 C          12.3923    1.5600    0.0000 C.3     1  UNL1       -0.0526
     17 C           3.7320    1.5600    0.0000 C.3     1  UNL1       -0.0533
     18 C          13.2583    2.0600    0.0000 C.3     1  UNL1       -0.0430
     19 C           2.8660    2.0600    0.0000 C.3     1  UNL1       -0.0559
     20 C          14.1244    1.5600    0.0000 C.3     1  UNL1        0.0449
     21 C          22.7846    1.5600    0.0000 C.3     1  UNL1       -0.0530
     22 C          23.6506    2.0600    0.0000 C.3     1  UNL1       -0.0528
     23 C           2.0000    1.5600    0.0000 C.3     1  UNL1       -0.0653
     24 C          21.9186    2.0600    0.0000 C.3     1  UNL1       -0.0526
     25 C          14.9904   -3.9400    0.0000 C.3     1  UNL1       -0.0530
     26 C          14.1244   -4.4400    0.0000 C.3     1  UNL1       -0.0528
     27 C          24.5167    1.5600    0.0000 C.3     1  UNL1       -0.0496
     28 C          27.9808    4.5600    0.0000 C.3     1  UNL1       -0.0528
     29 C          28.8468    5.0600    0.0000 C.3     1  UNL1       -0.0530
     30 C          14.9904   -2.9400    0.0000 C.3     1  UNL1       -0.0526
     31 C           8.9282   -7.4400    0.0000 C.3     1  UNL1       -0.0530
     32 C           9.7942   -6.9400    0.0000 C.3     1  UNL1       -0.0528
     33 C          14.9904    2.0600    0.0000 C.2     1  UNL1        0.3072
     34 C          14.1244   -5.4400    0.0000 C.3     1  UNL1       -0.0496
     35 C          21.0526    1.5600    0.0000 C.3     1  UNL1       -0.0430
     36 C          27.9808    3.5600    0.0000 C.3     1  UNL1       -0.0496
     37 C          28.8468    6.0600    0.0000 C.3     1  UNL1       -0.0531
     38 C           8.0622   -6.9400    0.0000 C.3     1  UNL1       -0.0531
     39 C          10.6603   -7.4400    0.0000 C.3     1  UNL1       -0.0496
     40 C          15.8564   -2.4400    0.0000 C.3     1  UNL1       -0.0430
     41 C          25.3827    2.0600    0.0000 C.3     1  UNL1       -0.0348
     42 C          13.2583   -5.9400    0.0000 C.3     1  UNL1       -0.0348
     43 C          27.1147    3.0600    0.0000 C.3     1  UNL1       -0.0348
     44 C          29.7128    6.5600    0.0000 C.3     1  UNL1       -0.0533
     45 C          17.5885    1.5600    0.0000 C.3     1  UNL1        0.1706
     46 C           7.1962   -7.4400    0.0000 C.3     1  UNL1       -0.0533
     47 C          11.5263   -6.9400    0.0000 C.3     1  UNL1       -0.0348
     48 C          20.1865    2.0600    0.0000 C.3     1  UNL1        0.0450
     49 C          16.7224    2.0600    0.0000 C.3     1  UNL1        0.1325
     50 C          15.8564   -1.4400    0.0000 C.3     1  UNL1        0.0449
     51 C          26.2487    1.5600    0.0000 C.2     1  UNL1       -0.0879
     52 C          27.1147    2.0600    0.0000 C.2     1  UNL1       -0.0879
     53 C          17.5885    0.5600    0.0000 C.3     1  UNL1        0.1325
     54 C          29.7128    7.5600    0.0000 C.3     1  UNL1       -0.0559
     55 C          13.2583   -6.9400    0.0000 C.2     1  UNL1       -0.0879
     56 C           6.3301   -6.9400    0.0000 C.3     1  UNL1       -0.0559
     57 C          12.3923   -7.4400    0.0000 C.2     1  UNL1       -0.0879
     58 C          19.3205    1.5600    0.0000 C.2     1  UNL1        0.3075
     59 C          16.7224   -0.9400    0.0000 C.2     1  UNL1        0.3072
     60 C          30.5788    8.0600    0.0000 C.3     1  UNL1       -0.0653
     61 C           5.4641   -7.4400    0.0000 C.3     1  UNL1       -0.0653
     62 H           8.4607    2.5349    0.0000 H       1  UNL1        0.0265
     63 H           7.6636    2.5349    0.0000 H       1  UNL1        0.0265
     64 H           8.5297    1.0850    0.0000 H       1  UNL1        0.0265
     65 H           9.3267    1.0850    0.0000 H       1  UNL1        0.0265
     66 H           6.7976    1.0850    0.0000 H       1  UNL1        0.0265
     67 H           7.5947    1.0850    0.0000 H       1  UNL1        0.0265
     68 H          10.1928    2.5349    0.0000 H       1  UNL1        0.0265
     69 H           9.3957    2.5349    0.0000 H       1  UNL1        0.0265
     70 H           6.7287    2.5349    0.0000 H       1  UNL1        0.0265
     71 H           5.9316    2.5349    0.0000 H       1  UNL1        0.0265
     72 H          10.2617    1.0850    0.0000 H       1  UNL1        0.0265
     73 H          11.0588    1.0850    0.0000 H       1  UNL1        0.0265
     74 H           5.0656    1.0850    0.0000 H       1  UNL1        0.0265
     75 H           5.8626    1.0850    0.0000 H       1  UNL1        0.0265
     76 H          11.9248    2.5349    0.0000 H       1  UNL1        0.0265
     77 H          11.1278    2.5349    0.0000 H       1  UNL1        0.0265
     78 H           4.9966    2.5349    0.0000 H       1  UNL1        0.0265
     79 H           4.1996    2.5349    0.0000 H       1  UNL1        0.0265
     80 H          11.9938    1.0850    0.0000 H       1  UNL1        0.0265
     81 H          12.7908    1.0850    0.0000 H       1  UNL1        0.0265
     82 H           3.3335    1.0850    0.0000 H       1  UNL1        0.0265
     83 H           4.1306    1.0850    0.0000 H       1  UNL1        0.0265
     84 H          13.6569    2.5349    0.0000 H       1  UNL1        0.0270
     85 H          12.8598    2.5349    0.0000 H       1  UNL1        0.0270
     86 H           3.2646    2.5349    0.0000 H       1  UNL1        0.0263
     87 H           2.4675    2.5349    0.0000 H       1  UNL1        0.0263
     88 H          13.7258    1.0850    0.0000 H       1  UNL1        0.0377
     89 H          14.5229    1.0850    0.0000 H       1  UNL1        0.0377
     90 H          22.3861    1.0850    0.0000 H       1  UNL1        0.0265
     91 H          23.1831    1.0850    0.0000 H       1  UNL1        0.0265
     92 H          24.0492    2.5349    0.0000 H       1  UNL1        0.0265
     93 H          23.2521    2.5349    0.0000 H       1  UNL1        0.0265
     94 H          22.3171    2.5349    0.0000 H       1  UNL1        0.0265
     95 H          21.5201    2.5349    0.0000 H       1  UNL1        0.0265
     96 H           1.6900    2.0969    0.0000 H       1  UNL1        0.0230
     97 H           1.4631    1.2500    0.0000 H       1  UNL1        0.0230
     98 H           2.3100    1.0231    0.0000 H       1  UNL1        0.0230
     99 H          15.2024   -4.5226    0.0000 H       1  UNL1        0.0265
    100 H          15.6010   -3.8323    0.0000 H       1  UNL1        0.0265
    101 H          13.9123   -3.8574    0.0000 H       1  UNL1        0.0265
    102 H          13.5138   -4.5477    0.0000 H       1  UNL1        0.0265
    103 H          24.1181    1.0850    0.0000 H       1  UNL1        0.0268
    104 H          24.9152    1.0850    0.0000 H       1  UNL1        0.0268
    105 H          27.7687    5.1426    0.0000 H       1  UNL1        0.0265
    106 H          27.3702    4.4523    0.0000 H       1  UNL1        0.0265
    107 H          29.0588    4.4774    0.0000 H       1  UNL1        0.0265
    108 H          29.4574    5.1677    0.0000 H       1  UNL1        0.0265
    109 H          14.7783   -2.3574    0.0000 H       1  UNL1        0.0265
    110 H          14.3798   -3.0477    0.0000 H       1  UNL1        0.0265
    111 H           8.5297   -7.9150    0.0000 H       1  UNL1        0.0265
    112 H           9.3267   -7.9150    0.0000 H       1  UNL1        0.0265
    113 H          10.1928   -6.4650    0.0000 H       1  UNL1        0.0265
    114 H           9.3957   -6.4650    0.0000 H       1  UNL1        0.0265
    115 H          14.3364   -6.0226    0.0000 H       1  UNL1        0.0268
    116 H          14.7349   -5.3323    0.0000 H       1  UNL1        0.0268
    117 H          20.6540    1.0850    0.0000 H       1  UNL1        0.0270
    118 H          21.4511    1.0850    0.0000 H       1  UNL1        0.0270
    119 H          28.1928    2.9774    0.0000 H       1  UNL1        0.0268
    120 H          28.5913    3.6677    0.0000 H       1  UNL1        0.0268
    121 H          28.6347    6.6426    0.0000 H       1  UNL1        0.0265
    122 H          28.2362    5.9523    0.0000 H       1  UNL1        0.0265
    123 H           8.4607   -6.4650    0.0000 H       1  UNL1        0.0265
    124 H           7.6636   -6.4650    0.0000 H       1  UNL1        0.0265
    125 H          10.2617   -7.9150    0.0000 H       1  UNL1        0.0268
    126 H          11.0588   -7.9150    0.0000 H       1  UNL1        0.0268
    127 H          16.0685   -3.0226    0.0000 H       1  UNL1        0.0270
    128 H          16.4670   -2.3323    0.0000 H       1  UNL1        0.0270
    129 H          25.7812    2.5349    0.0000 H       1  UNL1        0.0307
    130 H          24.9842    2.5349    0.0000 H       1  UNL1        0.0307
    131 H          13.0463   -5.3574    0.0000 H       1  UNL1        0.0307
    132 H          12.6477   -6.0477    0.0000 H       1  UNL1        0.0307
    133 H          26.9027    3.6426    0.0000 H       1  UNL1        0.0307
    134 H          26.5042    2.9523    0.0000 H       1  UNL1        0.0307
    135 H          29.9249    5.9774    0.0000 H       1  UNL1        0.0265
    136 H          30.3234    6.6677    0.0000 H       1  UNL1        0.0265
    137 H           6.7976   -7.9150    0.0000 H       1  UNL1        0.0265
    138 H           7.5947   -7.9150    0.0000 H       1  UNL1        0.0265
    139 H          17.5885    2.1800    0.0000 H       1  UNL1        0.0803
    140 H          11.9248   -6.4650    0.0000 H       1  UNL1        0.0307
    141 H          11.1278   -6.4650    0.0000 H       1  UNL1        0.0307
    142 H          20.5851    2.5349    0.0000 H       1  UNL1        0.0377
    143 H          19.7880    2.5349    0.0000 H       1  UNL1        0.0377
    144 H          17.1210    2.5349    0.0000 H       1  UNL1        0.0736
    145 H          16.3239    2.5349    0.0000 H       1  UNL1        0.0736
    146 H          15.6444   -0.8574    0.0000 H       1  UNL1        0.0377
    147 H          15.2458   -1.5477    0.0000 H       1  UNL1        0.0377
    148 H          26.2487    0.9400    0.0000 H       1  UNL1        0.0569
    149 H          27.6517    1.7500    0.0000 H       1  UNL1        0.0569
    150 H          29.5008    8.1426    0.0000 H       1  UNL1        0.0263
    151 H          29.1022    7.4523    0.0000 H       1  UNL1        0.0263
    152 H          17.8005   -0.0226    0.0000 H       1  UNL1        0.0736
    153 H          18.1990    0.6677    0.0000 H       1  UNL1        0.0736
    154 H          13.7953   -7.2500    0.0000 H       1  UNL1        0.0569
    155 H           6.7287   -6.4650    0.0000 H       1  UNL1        0.0263
    156 H           5.9316   -6.4650    0.0000 H       1  UNL1        0.0263
    157 H          12.3923   -8.0600    0.0000 H       1  UNL1        0.0569
    158 H          30.8888    7.5231    0.0000 H       1  UNL1        0.0230
    159 H          31.1158    8.3700    0.0000 H       1  UNL1        0.0230
    160 H          30.2688    8.5969    0.0000 H       1  UNL1        0.0230
    161 H           5.1541   -6.9031    0.0000 H       1  UNL1        0.0230
    162 H           4.9272   -7.7500    0.0000 H       1  UNL1        0.0230
    163 H           5.7741   -7.9769    0.0000 H       1  UNL1        0.0230
@<TRIPOS>BOND
     1     1    33    1
     2     1    49    1
     3     2    45    1
     4     2    58    1
     5     3    53    1
     6     3    59    1
     7     4    33    2
     8     5    58    2
     9     6    59    2
    10     7     8    1
    11     7     9    1
    12     7    62    1
    13     7    63    1
    14     8    10    1
    15     8    64    1
    16     8    65    1
    17     9    11    1
    18     9    66    1
    19     9    67    1
    20    10    12    1
    21    10    68    1
    22    10    69    1
    23    11    13    1
    24    11    70    1
    25    11    71    1
    26    12    14    1
    27    12    72    1
    28    12    73    1
    29    13    15    1
    30    13    74    1
    31    13    75    1
    32    14    16    1
    33    14    76    1
    34    14    77    1
    35    15    17    1
    36    15    78    1
    37    15    79    1
    38    16    18    1
    39    16    80    1
    40    16    81    1
    41    17    19    1
    42    17    82    1
    43    17    83    1
    44    18    20    1
    45    18    84    1
    46    18    85    1
    47    19    23    1
    48    19    86    1
    49    19    87    1
    50    20    33    1
    51    20    88    1
    52    20    89    1
    53    21    22    1
    54    21    24    1
    55    21    90    1
    56    21    91    1
    57    22    27    1
    58    22    92    1
    59    22    93    1
    60    23    96    1
    61    23    97    1
    62    23    98    1
    63    24    35    1
    64    24    94    1
    65    24    95    1
    66    25    26    1
    67    25    30    1
    68    25    99    1
    69    25   100    1
    70    26    34    1
    71    26   101    1
    72    26   102    1
    73    27    41    1
    74    27   103    1
    75    27   104    1
    76    28    29    1
    77    28    36    1
    78    28   105    1
    79    28   106    1
    80    29    37    1
    81    29   107    1
    82    29   108    1
    83    30    40    1
    84    30   109    1
    85    30   110    1
    86    31    32    1
    87    31    38    1
    88    31   111    1
    89    31   112    1
    90    32    39    1
    91    32   113    1
    92    32   114    1
    93    34    42    1
    94    34   115    1
    95    34   116    1
    96    35    48    1
    97    35   117    1
    98    35   118    1
    99    36    43    1
   100    36   119    1
   101    36   120    1
   102    37    44    1
   103    37   121    1
   104    37   122    1
   105    38    46    1
   106    38   123    1
   107    38   124    1
   108    39    47    1
   109    39   125    1
   110    39   126    1
   111    40    50    1
   112    40   127    1
   113    40   128    1
   114    41    51    1
   115    41   129    1
   116    41   130    1
   117    42    55    1
   118    42   131    1
   119    42   132    1
   120    43    52    1
   121    43   133    1
   122    43   134    1
   123    44    54    1
   124    44   135    1
   125    44   136    1
   126    45    49    1
   127    45    53    1
   128    45   139    1
   129    46    56    1
   130    46   137    1
   131    46   138    1
   132    47    57    1
   133    47   140    1
   134    47   141    1
   135    48    58    1
   136    48   142    1
   137    48   143    1
   138    49   144    1
   139    49   145    1
   140    50    59    1
   141    50   146    1
   142    50   147    1
   143    51    52    2
   144    51   148    1
   145    52   149    1
   146    53   152    1
   147    53   153    1
   148    54    60    1
   149    54   150    1
   150    54   151    1
   151    55    57    2
   152    55   154    1
   153    56    61    1
   154    56   155    1
   155    56   156    1
   156    57   157    1
   157    60   158    1
   158    60   159    1
   159    60   160    1
   160    61   161    1
   161    61   162    1
   162    61   163    1
