@<TRIPOS>MOLECULE
IMPHY006546
 25 25 0 0 0
SMALL
GASTEIGER

@<TRIPOS>ATOM
      1 O           2.0000    1.6550    0.0000 O.3     1  UNL1       -0.3859
      2 O           2.8660   -2.8450    0.0000 O.3     1  UNL1       -0.5068
      3 N           3.7320    2.6550    0.0000 N.3     1  UNL1       -0.3162
      4 C           2.8660    1.1550    0.0000 C.3     1  UNL1        0.0926
      5 C           3.7320    1.6550    0.0000 C.3     1  UNL1        0.0258
      6 C           2.8660    0.1550    0.0000 C.ar    1  UNL1       -0.0177
      7 C           2.0000   -0.3450    0.0000 C.ar    1  UNL1       -0.0526
      8 C           3.7320   -0.3450    0.0000 C.ar    1  UNL1       -0.0526
      9 C           2.0000   -1.3450    0.0000 C.ar    1  UNL1       -0.0198
     10 C           3.7320   -1.3450    0.0000 C.ar    1  UNL1       -0.0198
     11 C           2.8660   -1.8450    0.0000 C.ar    1  UNL1        0.1169
     12 C           4.5981    3.1550    0.0000 C.3     1  UNL1       -0.0157
     13 H           2.8660    1.7750    0.0000 H       1  UNL1        0.0656
     14 H           3.9441    1.0724    0.0000 H       1  UNL1        0.0453
     15 H           4.3426    1.7627    0.0000 H       1  UNL1        0.0453
     16 H           1.4631   -0.0350    0.0000 H       1  UNL1        0.0622
     17 H           4.2690   -0.0350    0.0000 H       1  UNL1        0.0622
     18 H           3.1951    2.9650    0.0000 H       1  UNL1        0.1217
     19 H           1.4631   -1.6550    0.0000 H       1  UNL1        0.0654
     20 H           4.2690   -1.6550    0.0000 H       1  UNL1        0.0654
     21 H           2.0000    2.2750    0.0000 H       1  UNL1        0.2103
     22 H           4.9081    2.6181    0.0000 H       1  UNL1        0.0388
     23 H           5.1350    3.4650    0.0000 H       1  UNL1        0.0388
     24 H           4.2881    3.6919    0.0000 H       1  UNL1        0.0388
     25 H           2.3291   -3.1550    0.0000 H       1  UNL1        0.2921
@<TRIPOS>BOND
     1     1     4    1
     2     1    21    1
     3     2    11    1
     4     2    25    1
     5     3     5    1
     6     3    12    1
     7     3    18    1
     8     4     5    1
     9     4     6    1
    10     4    13    1
    11     5    14    1
    12     5    15    1
    13     6     7   ar
    14     6     8   ar
    15     7     9   ar
    16     7    16    1
    17     8    10   ar
    18     8    17    1
    19     9    11   ar
    20     9    19    1
    21    10    11   ar
    22    10    20    1
    23    12    22    1
    24    12    23    1
    25    12    24    1
