@<TRIPOS>MOLECULE
IMPHY009736
 30 30 0 0 0
SMALL
GASTEIGER

@<TRIPOS>ATOM
      1 O           2.0000    0.5670    0.0000 O.2     1  UNL1       -0.3007
      2 C           5.4641    0.5670    0.0000 C.3     1  UNL1       -0.0132
      3 C           6.3301    0.0670    0.0000 C.3     1  UNL1       -0.0439
      4 C           4.5981    0.0670    0.0000 C.2     1  UNL1       -0.0581
      5 C           6.3301   -0.9330    0.0000 C.3     1  UNL1       -0.0486
      6 C           5.4641   -1.4330    0.0000 C.3     1  UNL1       -0.0317
      7 C           4.5981   -0.9330    0.0000 C.2     1  UNL1       -0.0725
      8 C           5.9641    1.4330    0.0000 C.3     1  UNL1       -0.0561
      9 C           4.9641    1.4330    0.0000 C.3     1  UNL1       -0.0561
     10 C           3.7320    0.5670    0.0000 C.3     1  UNL1        0.0247
     11 C           3.7320   -1.4330    0.0000 C.3     1  UNL1       -0.0435
     12 C           2.8660    0.0670    0.0000 C.2     1  UNL1        0.1243
     13 H           6.9407   -0.0407    0.0000 H       1  UNL1        0.0274
     14 H           6.5422    0.6496    0.0000 H       1  UNL1        0.0274
     15 H           6.5422   -1.5156    0.0000 H       1  UNL1        0.0269
     16 H           6.9407   -0.8254    0.0000 H       1  UNL1        0.0269
     17 H           5.0656   -1.9080    0.0000 H       1  UNL1        0.0310
     18 H           5.8626   -1.9080    0.0000 H       1  UNL1        0.0310
     19 H           6.5010    1.1230    0.0000 H       1  UNL1        0.0238
     20 H           6.2741    1.9700    0.0000 H       1  UNL1        0.0238
     21 H           5.4272    1.7430    0.0000 H       1  UNL1        0.0238
     22 H           5.5010    1.7430    0.0000 H       1  UNL1        0.0238
     23 H           4.6541    1.9700    0.0000 H       1  UNL1        0.0238
     24 H           4.4272    1.1230    0.0000 H       1  UNL1        0.0238
     25 H           4.1306    1.0419    0.0000 H       1  UNL1        0.0384
     26 H           3.3335    1.0419    0.0000 H       1  UNL1        0.0384
     27 H           3.4220   -0.8961    0.0000 H       1  UNL1        0.0274
     28 H           3.1951   -1.7430    0.0000 H       1  UNL1        0.0274
     29 H           4.0420   -1.9700    0.0000 H       1  UNL1        0.0274
     30 H           2.8660   -0.5530    0.0000 H       1  UNL1        0.1029
@<TRIPOS>BOND
     1     1    12    2
     2     2     3    1
     3     2     4    1
     4     2     8    1
     5     2     9    1
     6     3     5    1
     7     3    13    1
     8     3    14    1
     9     4     7    2
    10     4    10    1
    11     5     6    1
    12     5    15    1
    13     5    16    1
    14     6     7    1
    15     6    17    1
    16     6    18    1
    17     7    11    1
    18     8    19    1
    19     8    20    1
    20     8    21    1
    21     9    22    1
    22     9    23    1
    23     9    24    1
    24    10    12    1
    25    10    25    1
    26    10    26    1
    27    11    27    1
    28    11    28    1
    29    11    29    1
    30    12    30    1
