@<TRIPOS>MOLECULE
IMPHY005701
 48 50 0 0 0
SMALL
GASTEIGER

@<TRIPOS>ATOM
      1 O           4.6423    1.2179    0.0000 O.3     1  UNL1       -0.5031
      2 O           2.0000   -0.2894    0.0000 O.2     1  UNL1       -0.2924
      3 O           8.1663   -0.8167    0.0000 O.3     1  UNL1       -0.5056
      4 O           7.2622   -2.3136    0.0000 O.2     1  UNL1       -0.2871
      5 O           6.4082    2.2557    0.0000 O.3     1  UNL1       -0.5030
      6 O           9.0539    2.7282    0.0000 O.3     1  UNL1       -0.3917
      7 C           4.6641   -0.8136    0.0000 C.3     1  UNL1        0.0296
      8 C           4.6641   -1.8136    0.0000 C.2     1  UNL1       -0.0297
      9 C           5.5301   -0.3136    0.0000 C.ar    1  UNL1        0.0226
     10 C           3.7702   -0.2789    0.0000 C.3     1  UNL1        0.0237
     11 C           4.6641    0.1864    0.0000 C.3     1  UNL1       -0.0509
     12 C           6.3961   -0.8136    0.0000 C.ar    1  UNL1        0.0710
     13 C           3.7702   -2.3482    0.0000 C.2     1  UNL1       -0.0401
     14 C           2.8641   -0.7928    0.0000 C.2     1  UNL1        0.1604
     15 C           5.5301   -2.3136    0.0000 C.2     1  UNL1       -0.0099
     16 C           2.8641   -1.8344    0.0000 C.2     1  UNL1       -0.0048
     17 C           5.5141    0.7279    0.0000 C.ar    1  UNL1        0.1635
     18 C           6.3961   -1.8136    0.0000 C.2     1  UNL1        0.1903
     19 C           7.3062   -0.3067    0.0000 C.ar    1  UNL1        0.1349
     20 C           7.3142    0.7349    0.0000 C.ar    1  UNL1        0.0422
     21 C           6.4121    1.2557    0.0000 C.ar    1  UNL1        0.1654
     22 C           3.7817   -3.3482    0.0000 C.3     1  UNL1       -0.0391
     23 C           8.1821    1.2315    0.0000 C.3     1  UNL1        0.0053
     24 C           2.0000   -2.3377    0.0000 C.3     1  UNL1       -0.0361
     25 C           8.1860    2.2315    0.0000 C.3     1  UNL1        0.0566
     26 C           7.3219    2.7348    0.0000 C.3     1  UNL1       -0.0386
     27 H           4.1748    0.1909    0.0000 H       1  UNL1        0.0357
     28 H           3.3765    0.2001    0.0000 H       1  UNL1        0.0357
     29 H           5.2841    0.1864    0.0000 H       1  UNL1        0.0242
     30 H           4.6641    0.8064    0.0000 H       1  UNL1        0.0242
     31 H           4.0441    0.1864    0.0000 H       1  UNL1        0.0242
     32 H           5.5301   -2.9336    0.0000 H       1  UNL1        0.0659
     33 H           3.1618   -3.3553    0.0000 H       1  UNL1        0.0278
     34 H           3.7889   -3.9681    0.0000 H       1  UNL1        0.0278
     35 H           4.4017   -3.3410    0.0000 H       1  UNL1        0.0278
     36 H           8.3919    0.6481    0.0000 H       1  UNL1        0.0340
     37 H           8.7931    1.3368    0.0000 H       1  UNL1        0.0340
     38 H           1.6879   -1.8020    0.0000 H       1  UNL1        0.0279
     39 H           1.4643   -2.6498    0.0000 H       1  UNL1        0.0279
     40 H           2.3121   -2.8735    0.0000 H       1  UNL1        0.0279
     41 H           8.1884    2.8515    0.0000 H       1  UNL1        0.0594
     42 H           4.6352    1.8378    0.0000 H       1  UNL1        0.2923
     43 H           8.7068   -0.5129    0.0000 H       1  UNL1        0.2922
     44 H           5.8701    2.5636    0.0000 H       1  UNL1        0.2923
     45 H           7.6340    3.2706    0.0000 H       1  UNL1        0.0255
     46 H           6.7862    3.0469    0.0000 H       1  UNL1        0.0255
     47 H           7.0098    2.1991    0.0000 H       1  UNL1        0.0255
     48 H           9.0563    3.3482    0.0000 H       1  UNL1        0.2098
@<TRIPOS>BOND
     1     1    17    1
     2     1    42    1
     3     2    14    2
     4     3    19    1
     5     3    43    1
     6     4    18    2
     7     5    21    1
     8     5    44    1
     9    25     6    1
    10     6    48    1
    11     7     8    1
    12     7     9    1
    13     7    10    1
    14     7    11    1
    15     8    13    1
    16     8    15    2
    17     9    12   ar
    18     9    17   ar
    19    10    14    1
    20    10    27    1
    21    10    28    1
    22    11    29    1
    23    11    30    1
    24    11    31    1
    25    12    18    1
    26    12    19   ar
    27    13    16    2
    28    13    22    1
    29    14    16    1
    30    15    18    1
    31    15    32    1
    32    16    24    1
    33    17    21   ar
    34    19    20   ar
    35    20    21   ar
    36    20    23    1
    37    22    33    1
    38    22    34    1
    39    22    35    1
    40    23    25    1
    41    23    36    1
    42    23    37    1
    43    24    38    1
    44    24    39    1
    45    24    40    1
    46    25    26    1
    47    25    41    1
    48    26    45    1
    49    26    46    1
    50    26    47    1
