@<TRIPOS>MOLECULE
IMPHY013858
 22 22 0 0 0
SMALL
GASTEIGER

@<TRIPOS>ATOM
      1 O           3.7320    2.7500    0.0000 O.3     1  UNL1       -0.4802
      2 O           2.8660   -2.7500    0.0000 O.3     1  UNL1       -0.5068
      3 O           4.5981    1.2500    0.0000 O.2     1  UNL1       -0.2503
      4 C           2.8660    1.2500    0.0000 C.3     1  UNL1        0.0784
      5 C           2.8660    0.2500    0.0000 C.ar    1  UNL1       -0.0337
      6 C           2.0000    1.7500    0.0000 C.3     1  UNL1       -0.0482
      7 C           3.7320   -0.2500    0.0000 C.ar    1  UNL1       -0.0543
      8 C           2.0000   -0.2500    0.0000 C.ar    1  UNL1       -0.0543
      9 C           3.7320    1.7500    0.0000 C.2     1  UNL1        0.3119
     10 C           3.7320   -1.2500    0.0000 C.ar    1  UNL1       -0.0199
     11 C           2.0000   -1.2500    0.0000 C.ar    1  UNL1       -0.0199
     12 C           2.8660   -1.7500    0.0000 C.ar    1  UNL1        0.1169
     13 H           2.8660    1.8700    0.0000 H       1  UNL1        0.0459
     14 H           2.3100    2.2869    0.0000 H       1  UNL1        0.0241
     15 H           1.4631    2.0600    0.0000 H       1  UNL1        0.0241
     16 H           1.6900    1.2131    0.0000 H       1  UNL1        0.0241
     17 H           4.2690    0.0600    0.0000 H       1  UNL1        0.0622
     18 H           1.4631    0.0600    0.0000 H       1  UNL1        0.0622
     19 H           4.2690   -1.5600    0.0000 H       1  UNL1        0.0654
     20 H           1.4631   -1.5600    0.0000 H       1  UNL1        0.0654
     21 H           4.2690    3.0600    0.0000 H       1  UNL1        0.2951
     22 H           2.3291   -3.0600    0.0000 H       1  UNL1        0.2921
@<TRIPOS>BOND
     1     1     9    1
     2     1    21    1
     3     2    12    1
     4     2    22    1
     5     3     9    2
     6     4     5    1
     7     4     6    1
     8     4     9    1
     9     4    13    1
    10     5     7   ar
    11     5     8   ar
    12     6    14    1
    13     6    15    1
    14     6    16    1
    15     7    10   ar
    16     7    17    1
    17     8    11   ar
    18     8    18    1
    19    10    12   ar
    20    10    19    1
    21    11    12   ar
    22    11    20    1
