@<TRIPOS>MOLECULE
IMPHY006014
 24 26 0 0 0
SMALL
GASTEIGER

@<TRIPOS>ATOM
      1 O           4.6660   -1.4827    0.0000 O.2     1  UNL1       -0.4546
      2 O           4.6660    1.5173    0.0000 O.2     1  UNL1       -0.2864
      3 O           8.1962    0.5415    0.0000 O.3     1  UNL1       -0.5067
      4 C           5.5321    0.0173    0.0000 C.ar    1  UNL1        0.0680
      5 C           3.8000    0.0173    0.0000 C.ar    1  UNL1        0.0646
      6 C           5.5321   -0.9827    0.0000 C.ar    1  UNL1        0.1395
      7 C           3.8000   -0.9827    0.0000 C.ar    1  UNL1        0.1393
      8 C           4.6660    0.5173    0.0000 C.ar    1  UNL1        0.2003
      9 C           6.4260    0.5520    0.0000 C.ar    1  UNL1       -0.0058
     10 C           6.4260   -1.5173    0.0000 C.ar    1  UNL1       -0.0152
     11 C           2.9061    0.5520    0.0000 C.ar    1  UNL1       -0.0474
     12 C           2.9061   -1.5173    0.0000 C.ar    1  UNL1       -0.0186
     13 C           7.3321    0.0381    0.0000 C.ar    1  UNL1        0.1178
     14 C           7.3321   -1.0035    0.0000 C.ar    1  UNL1       -0.0167
     15 C           2.0000    0.0381    0.0000 C.ar    1  UNL1       -0.0609
     16 C           2.0000   -1.0035    0.0000 C.ar    1  UNL1       -0.0582
     17 H           6.4188    1.1720    0.0000 H       1  UNL1        0.0662
     18 H           6.4188   -2.1373    0.0000 H       1  UNL1        0.0656
     19 H           2.9132    1.1720    0.0000 H       1  UNL1        0.0626
     20 H           2.9132   -2.1373    0.0000 H       1  UNL1        0.0654
     21 H           7.8678   -1.3156    0.0000 H       1  UNL1        0.0655
     22 H           1.4643    0.3502    0.0000 H       1  UNL1        0.0618
     23 H           1.4643   -1.3156    0.0000 H       1  UNL1        0.0619
     24 H           8.7343    0.2336    0.0000 H       1  UNL1        0.2921
@<TRIPOS>BOND
     1     1     6   ar
     2     1     7   ar
     3     2     8    2
     4     3    13    1
     5     3    24    1
     6     4     6   ar
     7     4     8   ar
     8     4     9   ar
     9     5     7   ar
    10     5     8   ar
    11     5    11   ar
    12     6    10   ar
    13     7    12   ar
    14     9    13   ar
    15     9    17    1
    16    10    14   ar
    17    10    18    1
    18    11    15   ar
    19    11    19    1
    20    12    16   ar
    21    12    20    1
    22    13    14   ar
    23    14    21    1
    24    15    16   ar
    25    15    22    1
    26    16    23    1
