@<TRIPOS>MOLECULE
IMPHY000291
 29 28 0 0 0
SMALL
GASTEIGER

@<TRIPOS>ATOM
      1 N           6.0010   -0.2500    0.0000 N.3     1  UNL1       -0.3159
      2 N          10.3312    0.2500    0.0000 N.3     1  UNL1       -0.3300
      3 N           2.5369   -0.2500    0.0000 N.3     1  UNL1       -0.3299
      4 C           7.7331   -0.2500    0.0000 C.3     1  UNL1       -0.0393
      5 C           6.8671    0.2500    0.0000 C.3     1  UNL1       -0.0041
      6 C           8.5991    0.2500    0.0000 C.3     1  UNL1       -0.0395
      7 C           5.1350    0.2500    0.0000 C.3     1  UNL1       -0.0030
      8 C           4.2690   -0.2500    0.0000 C.3     1  UNL1       -0.0281
      9 C           9.4651   -0.2500    0.0000 C.3     1  UNL1       -0.0069
     10 C           3.4030    0.2500    0.0000 C.3     1  UNL1       -0.0058
     11 H           7.3346   -0.7249    0.0000 H       1  UNL1        0.0278
     12 H           8.1316   -0.7249    0.0000 H       1  UNL1        0.0278
     13 H           7.2656    0.7249    0.0000 H       1  UNL1        0.0424
     14 H           6.4685    0.7249    0.0000 H       1  UNL1        0.0424
     15 H           8.9976    0.7249    0.0000 H       1  UNL1        0.0278
     16 H           8.2006    0.7249    0.0000 H       1  UNL1        0.0278
     17 H           5.5335    0.7249    0.0000 H       1  UNL1        0.0424
     18 H           4.7365    0.7249    0.0000 H       1  UNL1        0.0424
     19 H           6.0010   -0.8700    0.0000 H       1  UNL1        0.1219
     20 H           3.8705   -0.7249    0.0000 H       1  UNL1        0.0290
     21 H           4.6675   -0.7249    0.0000 H       1  UNL1        0.0290
     22 H           9.0666   -0.7249    0.0000 H       1  UNL1        0.0422
     23 H           9.8637   -0.7249    0.0000 H       1  UNL1        0.0422
     24 H           3.8015    0.7249    0.0000 H       1  UNL1        0.0422
     25 H           3.0044    0.7249    0.0000 H       1  UNL1        0.0422
     26 H          10.8681   -0.0600    0.0000 H       1  UNL1        0.1182
     27 H          10.3312    0.8700    0.0000 H       1  UNL1        0.1182
     28 H           2.0000    0.0600    0.0000 H       1  UNL1        0.1182
     29 H           2.5369   -0.8700    0.0000 H       1  UNL1        0.1182
@<TRIPOS>BOND
     1     1     5    1
     2     1     7    1
     3     1    19    1
     4     2     9    1
     5     2    26    1
     6     2    27    1
     7     3    10    1
     8     3    28    1
     9     3    29    1
    10     4     5    1
    11     4     6    1
    12     4    11    1
    13     4    12    1
    14     5    13    1
    15     5    14    1
    16     6     9    1
    17     6    15    1
    18     6    16    1
    19     7     8    1
    20     7    17    1
    21     7    18    1
    22     8    10    1
    23     8    20    1
    24     8    21    1
    25     9    22    1
    26     9    23    1
    27    10    24    1
    28    10    25    1
