@<TRIPOS>MOLECULE
IMPHY008032
 53 57 0 0 0
SMALL
GASTEIGER

@<TRIPOS>ATOM
      1 O           8.1862    1.9203    0.0000 O.3     1  UNL1       -0.3482
      2 O           4.7950    0.7813    0.0000 O.3     1  UNL1       -0.3914
      3 O           9.4219    2.2503    0.0000 O.3     1  UNL1       -0.3644
      4 O           2.0000   -2.7711    0.0000 O.2     1  UNL1       -0.2879
      5 C           7.3931    0.2813    0.0000 C.3     1  UNL1        0.0073
      6 C           7.3931   -0.7187    0.0000 C.3     1  UNL1       -0.0296
      7 C           8.3393    0.5860    0.0000 C.3     1  UNL1        0.0208
      8 C           6.5271   -1.2187    0.0000 C.3     1  UNL1       -0.0311
      9 C           5.6610   -0.7187    0.0000 C.3     1  UNL1        0.0007
     10 C           6.5271    0.7813    0.0000 C.3     1  UNL1       -0.0181
     11 C           8.3393   -1.0235    0.0000 C.3     1  UNL1       -0.0489
     12 C           8.9229   -0.2187    0.0000 C.3     1  UNL1       -0.0445
     13 C           5.6610    0.2813    0.0000 C.3     1  UNL1        0.0600
     14 C           7.2949    1.2646    0.0000 C.3     1  UNL1        0.0573
     15 C           8.8334    1.4418    0.0000 C.3     1  UNL1        0.1677
     16 C           4.7510   -1.2256    0.0000 C.3     1  UNL1        0.0131
     17 C           6.5431   -2.2602    0.0000 C.3     1  UNL1       -0.0458
     18 C           5.6451   -2.7880    0.0000 C.3     1  UNL1       -0.0302
     19 C           4.7430   -2.2672    0.0000 C.2     1  UNL1       -0.0559
     20 C           9.7842    1.1320    0.0000 C.3     1  UNL1       -0.0104
     21 C           4.7587   -0.2256    0.0000 C.3     1  UNL1       -0.0520
     22 C           3.8242   -0.6615    0.0000 C.2     1  UNL1       -0.0701
     23 C           3.8076   -2.8169    0.0000 C.2     1  UNL1       -0.0149
     24 C           2.8763   -1.1894    0.0000 C.2     1  UNL1       -0.0180
     25 C           2.8680   -2.2744    0.0000 C.2     1  UNL1        0.1787
     26 H           7.4830   -1.5640    0.0000 H       1  UNL1        0.0310
     27 H           9.1882    0.6301    0.0000 H       1  UNL1        0.0359
     28 H           7.2664   -1.6381    0.0000 H       1  UNL1        0.0308
     29 H           6.3972   -0.2937    0.0000 H       1  UNL1        0.0340
     30 H           6.9256    1.2562    0.0000 H       1  UNL1        0.0296
     31 H           6.1285    1.2562    0.0000 H       1  UNL1        0.0296
     32 H           8.0883   -1.5904    0.0000 H       1  UNL1        0.0268
     33 H           8.8767   -1.3327    0.0000 H       1  UNL1        0.0268
     34 H           9.3838   -0.6335    0.0000 H       1  UNL1        0.0270
     35 H           9.3838    0.1960    0.0000 H       1  UNL1        0.0270
     36 H           5.6610    0.9013    0.0000 H       1  UNL1        0.0596
     37 H           7.0218    1.8212    0.0000 H       1  UNL1        0.0567
     38 H           6.6987    1.0945    0.0000 H       1  UNL1        0.0567
     39 H           6.7612   -2.8406    0.0000 H       1  UNL1        0.0271
     40 H           7.1523   -2.1448    0.0000 H       1  UNL1        0.0271
     41 H           5.2478   -3.2640    0.0000 H       1  UNL1        0.0310
     42 H           6.0460   -3.2609    0.0000 H       1  UNL1        0.0310
     43 H           9.5921    0.5425    0.0000 H       1  UNL1        0.0281
     44 H          10.3737    0.9398    0.0000 H       1  UNL1        0.0281
     45 H           9.9763    1.7214    0.0000 H       1  UNL1        0.0281
     46 H           5.3787   -0.2304    0.0000 H       1  UNL1        0.0241
     47 H           4.7635    0.3944    0.0000 H       1  UNL1        0.0241
     48 H           4.1388   -0.2208    0.0000 H       1  UNL1        0.0241
     49 H           3.8361   -0.0416    0.0000 H       1  UNL1        0.0582
     50 H           4.7950    1.4013    0.0000 H       1  UNL1        0.2098
     51 H           9.1702    2.8169    0.0000 H       1  UNL1        0.2128
     52 H           3.8100   -3.4369    0.0000 H       1  UNL1        0.0655
     53 H           2.3430   -0.8733    0.0000 H       1  UNL1        0.0653
@<TRIPOS>BOND
     1     1    14    1
     2     1    15    1
     3    13     2    1
     4     2    50    1
     5     3    15    1
     6     3    51    1
     7     4    25    2
     8     5     6    1
     9     5     7    1
    10     5    10    1
    11     5    14    1
    12     6     8    1
    13     6    11    1
    14     6    26    1
    15     7    12    1
    16     7    15    1
    17     7    27    1
    18     8     9    1
    19     8    17    1
    20     8    28    1
    21     9    13    1
    22     9    16    1
    23     9    29    1
    24    10    13    1
    25    10    30    1
    26    10    31    1
    27    11    12    1
    28    11    32    1
    29    11    33    1
    30    12    34    1
    31    12    35    1
    32    13    36    1
    33    14    37    1
    34    14    38    1
    35    15    20    1
    36    16    19    1
    37    16    21    1
    38    16    22    1
    39    17    18    1
    40    17    39    1
    41    17    40    1
    42    18    19    1
    43    18    41    1
    44    18    42    1
    45    19    23    2
    46    20    43    1
    47    20    44    1
    48    20    45    1
    49    21    46    1
    50    21    47    1
    51    21    48    1
    52    22    24    2
    53    22    49    1
    54    23    25    1
    55    23    52    1
    56    24    25    1
    57    24    53    1
