@<TRIPOS>MOLECULE
IMPHY012049
 84 89 0 0 0
SMALL
GASTEIGER

@<TRIPOS>ATOM
      1 O          10.9540   -2.0697    0.0000 O.3     1  UNL1       -0.3753
      2 O          12.3536   -0.5153    0.0000 O.3     1  UNL1       -0.4552
      3 O           9.2094   -2.5737    0.0000 O.3     1  UNL1       -0.4677
      4 O           7.9357   -1.3999    0.0000 O.2     1  UNL1       -0.2504
      5 O          12.7071    1.1803    0.0000 O.2     1  UNL1       -0.2449
      6 O           2.6726    1.9031    0.0000 O.3     1  UNL1       -0.4950
      7 O          16.3102    1.3136    0.0000 O.3     1  UNL1       -0.4913
      8 O          15.6031   -2.0776    0.0000 O.3     1  UNL1       -0.4913
      9 O          16.9356   -0.5862    0.0000 O.3     1  UNL1       -0.4885
     10 N           8.6152    2.1163    0.0000 N.3     1  UNL1       -0.2934
     11 N           6.1621    0.9988    0.0000 N.ar    1  UNL1       -0.3564
     12 C           9.2698    0.1532    0.0000 C.3     1  UNL1       -0.0197
     13 C           9.9668    0.9273    0.0000 C.3     1  UNL1       -0.0211
     14 C           8.2526    0.3776    0.0000 C.3     1  UNL1       -0.0278
     15 C           9.5891   -0.8837    0.0000 C.3     1  UNL1        0.0891
     16 C           7.9460    1.3731    0.0000 C.3     1  UNL1        0.0512
     17 C           9.6372    1.9154    0.0000 C.3     1  UNL1        0.0028
     18 C          11.0314    0.7181    0.0000 C.3     1  UNL1       -0.0089
     19 C          10.6486   -1.1175    0.0000 C.3     1  UNL1        0.1083
     20 C          11.3746   -0.3112    0.0000 C.3     1  UNL1        0.1304
     21 C           6.9679    1.5810    0.0000 C.ar    1  UNL1        0.0376
     22 C           8.3061    3.0673    0.0000 C.3     1  UNL1        0.0036
     23 C           6.6589    2.5321    0.0000 C.ar    1  UNL1       -0.0164
     24 C           7.3280    3.2752    0.0000 C.3     1  UNL1       -0.0125
     25 C           8.9114   -1.6191    0.0000 C.2     1  UNL1        0.3128
     26 C           5.6648    2.5295    0.0000 C.ar    1  UNL1        0.0034
     27 C           5.3584    1.5838    0.0000 C.ar    1  UNL1        0.0505
     28 C          11.9313   -2.2814    0.0000 C.3     1  UNL1        0.0370
     29 C           4.9832    3.3090    0.0000 C.ar    1  UNL1       -0.0489
     30 C          13.0198    0.2304    0.0000 C.2     1  UNL1        0.3398
     31 C           4.3492    1.3521    0.0000 C.ar    1  UNL1        0.0040
     32 C           3.9689    3.1007    0.0000 C.ar    1  UNL1       -0.0193
     33 C           3.6498    2.1156    0.0000 C.ar    1  UNL1        0.1221
     34 C           8.5317   -3.3090    0.0000 C.3     1  UNL1        0.0817
     35 C          13.9988    0.0263    0.0000 C.ar    1  UNL1        0.0661
     36 C          14.3114   -0.9236    0.0000 C.ar    1  UNL1       -0.0021
     37 C          14.6650    0.7720    0.0000 C.ar    1  UNL1       -0.0021
     38 C          15.6440    0.5678    0.0000 C.ar    1  UNL1        0.1660
     39 C          15.2904   -1.1277    0.0000 C.ar    1  UNL1        0.1660
     40 C           2.0000    2.6430    0.0000 C.3     1  UNL1        0.0788
     41 C          15.9566   -0.3820    0.0000 C.ar    1  UNL1        0.2035
     42 C          15.9975    2.2634    0.0000 C.3     1  UNL1        0.0790
     43 C          14.9368   -2.8233    0.0000 C.3     1  UNL1        0.0790
     44 C          17.6018    0.1596    0.0000 C.3     1  UNL1        0.0791
     45 H           8.6937   -0.4718    0.0000 H       1  UNL1        0.0313
     46 H          10.5282    1.5655    0.0000 H       1  UNL1        0.0317
     47 H           7.6376    0.2992    0.0000 H       1  UNL1        0.0287
     48 H           8.2246   -0.2417    0.0000 H       1  UNL1        0.0287
     49 H           9.7750   -1.4752    0.0000 H       1  UNL1        0.0443
     50 H           7.3724    0.7459    0.0000 H       1  UNL1        0.0527
     51 H          10.2503    2.0080    0.0000 H       1  UNL1        0.0429
     52 H           9.6509    2.5353    0.0000 H       1  UNL1        0.0429
     53 H          11.6444    0.8107    0.0000 H       1  UNL1        0.0305
     54 H          11.0451    1.3380    0.0000 H       1  UNL1        0.0305
     55 H          11.2548   -1.2476    0.0000 H       1  UNL1        0.0641
     56 H          11.5673   -0.9005    0.0000 H       1  UNL1        0.0760
     57 H           8.9201    3.1536    0.0000 H       1  UNL1        0.0430
     58 H           8.3278    3.6869    0.0000 H       1  UNL1        0.0430
     59 H           7.5602    3.8501    0.0000 H       1  UNL1        0.0326
     60 H           6.8022    3.6038    0.0000 H       1  UNL1        0.0326
     61 H           6.1611    0.3788    0.0000 H       1  UNL1        0.1656
     62 H          11.8001   -2.8874    0.0000 H       1  UNL1        0.0524
     63 H          12.5372   -2.4127    0.0000 H       1  UNL1        0.0524
     64 H          12.0625   -1.6755    0.0000 H       1  UNL1        0.0524
     65 H           5.1811    3.8966    0.0000 H       1  UNL1        0.0625
     66 H           4.1650    0.7601    0.0000 H       1  UNL1        0.0675
     67 H           3.5554    3.5626    0.0000 H       1  UNL1        0.0654
     68 H           8.0758   -2.8888    0.0000 H       1  UNL1        0.0661
     69 H           8.1116   -3.7649    0.0000 H       1  UNL1        0.0661
     70 H           8.9877   -3.7292    0.0000 H       1  UNL1        0.0661
     71 H          13.8984   -1.3859    0.0000 H       1  UNL1        0.0663
     72 H          14.4712    1.3609    0.0000 H       1  UNL1        0.0663
     73 H           2.4588    3.0601    0.0000 H       1  UNL1        0.0660
     74 H           1.5830    3.1018    0.0000 H       1  UNL1        0.0660
     75 H           1.5412    2.2260    0.0000 H       1  UNL1        0.0660
     76 H          16.5865    2.4573    0.0000 H       1  UNL1        0.0660
     77 H          15.8037    2.8523    0.0000 H       1  UNL1        0.0660
     78 H          15.4086    2.0696    0.0000 H       1  UNL1        0.0660
     79 H          14.4745   -2.4102    0.0000 H       1  UNL1        0.0660
     80 H          14.5237   -3.2857    0.0000 H       1  UNL1        0.0660
     81 H          15.3991   -3.2364    0.0000 H       1  UNL1        0.0660
     82 H          18.0642   -0.2535    0.0000 H       1  UNL1        0.0660
     83 H          18.0149    0.6219    0.0000 H       1  UNL1        0.0660
     84 H          17.1395    0.5726    0.0000 H       1  UNL1        0.0660
@<TRIPOS>BOND
     1    19     1    1
     2     1    28    1
     3    20     2    1
     4     2    30    1
     5     3    25    1
     6     3    34    1
     7     4    25    2
     8     5    30    2
     9     6    33    1
    10     6    40    1
    11     7    38    1
    12     7    42    1
    13     8    39    1
    14     8    43    1
    15     9    41    1
    16     9    44    1
    17    10    16    1
    18    10    17    1
    19    10    22    1
    20    11    21   ar
    21    11    27   ar
    22    11    61    1
    23    12    13    1
    24    12    14    1
    25    12    15    1
    26    12    45    1
    27    13    17    1
    28    13    18    1
    29    13    46    1
    30    14    16    1
    31    14    47    1
    32    14    48    1
    33    15    19    1
    34    15    25    1
    35    15    49    1
    36    16    21    1
    37    16    50    1
    38    17    51    1
    39    17    52    1
    40    18    20    1
    41    18    53    1
    42    18    54    1
    43    19    20    1
    44    19    55    1
    45    20    56    1
    46    21    23   ar
    47    22    24    1
    48    22    57    1
    49    22    58    1
    50    23    24    1
    51    23    26   ar
    52    24    59    1
    53    24    60    1
    54    26    27   ar
    55    26    29   ar
    56    27    31   ar
    57    28    62    1
    58    28    63    1
    59    28    64    1
    60    29    32   ar
    61    29    65    1
    62    30    35    1
    63    31    33   ar
    64    31    66    1
    65    32    33   ar
    66    32    67    1
    67    34    68    1
    68    34    69    1
    69    34    70    1
    70    35    36   ar
    71    35    37   ar
    72    36    39   ar
    73    36    71    1
    74    37    38   ar
    75    37    72    1
    76    38    41   ar
    77    39    41   ar
    78    40    73    1
    79    40    74    1
    80    40    75    1
    81    42    76    1
    82    42    77    1
    83    42    78    1
    84    43    79    1
    85    43    80    1
    86    43    81    1
    87    44    82    1
    88    44    83    1
    89    44    84    1
