@<TRIPOS>MOLECULE
IMPHY013478
 156 165 0 0 0
SMALL
GASTEIGER

@<TRIPOS>ATOM
      1 O           4.4180    5.4989    0.0000 O.3     1  UNL1       -0.3448
      2 O           4.5293    7.4813    0.0000 O.3     1  UNL1       -0.3480
      3 O           8.6163    1.6065    0.0000 O.3     1  UNL1       -0.3915
      4 O          12.2691    2.6093    0.0000 O.3     1  UNL1       -0.3429
      5 O          12.2610    4.7010    0.0000 O.3     1  UNL1       -0.3892
      6 O          11.4031    1.1093    0.0000 O.3     1  UNL1       -0.3405
      7 O          14.0011    1.6093    0.0000 O.3     1  UNL1       -0.3841
      8 O          14.0011   -0.3907    0.0000 O.3     1  UNL1       -0.3864
      9 O          12.2691   -1.3907    0.0000 O.3     1  UNL1       -0.3401
     10 O           9.6710    0.1093    0.0000 O.3     1  UNL1       -0.3924
     11 O          10.5370   -1.3907    0.0000 O.3     1  UNL1       -0.3405
     12 O          12.2691   -3.3907    0.0000 O.3     1  UNL1       -0.3377
     13 O          10.5370   -4.3907    0.0000 O.3     1  UNL1       -0.3401
     14 O           8.8050   -3.3907    0.0000 O.3     1  UNL1       -0.3865
     15 O          12.2691   -5.1227    0.0000 O.3     1  UNL1       -0.3405
     16 O           8.8050   -0.3907    0.0000 O.3     1  UNL1       -0.3924
     17 O           8.8050   -4.3907    0.0000 O.3     1  UNL1       -0.3461
     18 O          14.2691   -3.3907    0.0000 O.3     1  UNL1       -0.3841
     19 O          15.2691   -5.1227    0.0000 O.3     1  UNL1       -0.3864
     20 O          10.5370   -6.3907    0.0000 O.3     1  UNL1       -0.3841
     21 O          14.2692   -6.8547    0.0000 O.3     1  UNL1       -0.3865
     22 O           8.8050   -7.3907    0.0000 O.3     1  UNL1       -0.3864
     23 O           7.0729   -6.3907    0.0000 O.3     1  UNL1       -0.3869
     24 O          12.7691   -7.7208    0.0000 O.3     1  UNL1       -0.3924
     25 C           6.8878    5.6824    0.0000 C.3     1  UNL1       -0.0233
     26 C           6.8840    4.6824    0.0000 C.3     1  UNL1       -0.0298
     27 C           7.7480    4.1791    0.0000 C.3     1  UNL1       -0.0319
     28 C           5.9428    5.9908    0.0000 C.3     1  UNL1       -0.0015
     29 C           8.6160    4.6758    0.0000 C.3     1  UNL1       -0.0320
     30 C           9.5240    4.1654    0.0000 C.3     1  UNL1       -0.0213
     31 C           5.3561    5.1883    0.0000 C.3     1  UNL1        0.0660
     32 C           5.9366    4.3814    0.0000 C.3     1  UNL1       -0.0226
     33 C           7.7558    6.1791    0.0000 C.3     1  UNL1       -0.0467
     34 C           8.6198    5.6758    0.0000 C.3     1  UNL1       -0.0489
     35 C           5.3622    6.7905    0.0000 C.3     1  UNL1        0.0160
     36 C           9.5280    3.1238    0.0000 C.3     1  UNL1       -0.0068
     37 C           7.7280    3.1377    0.0000 C.3     1  UNL1       -0.0232
     38 C           8.6240    2.6064    0.0000 C.3     1  UNL1        0.0589
     39 C           4.4218    6.4871    0.0000 C.3     1  UNL1        0.1732
     40 C           6.8917    6.6824    0.0000 C.3     1  UNL1       -0.0590
     41 C          10.4530    4.7259    0.0000 C.3     1  UNL1       -0.0184
     42 C          10.4613    2.5705    0.0000 C.3     1  UNL1       -0.0184
     43 C           9.5202    5.1654    0.0000 C.3     1  UNL1       -0.0589
     44 C          11.3989    4.1943    0.0000 C.3     1  UNL1        0.0819
     45 C          11.4031    3.1093    0.0000 C.3     1  UNL1        0.0879
     46 C           5.6725    7.7412    0.0000 C.3     1  UNL1       -0.0572
     47 C           3.5070    6.0831    0.0000 C.3     1  UNL1        0.0020
     48 C           2.6998    6.6733    0.0000 C.3     1  UNL1       -0.0435
     49 C           3.7220    8.0715    0.0000 C.3     1  UNL1        0.0535
     50 C           2.8073    7.6675    0.0000 C.3     1  UNL1       -0.0201
     51 C          12.2691    1.6093    0.0000 C.3     1  UNL1        0.1883
     52 C           2.0000    8.2577    0.0000 C.3     1  UNL1       -0.0603
     53 C          13.1351    1.1093    0.0000 C.3     1  UNL1        0.1341
     54 C          13.1351    0.1093    0.0000 C.3     1  UNL1        0.1144
     55 C          11.4031    0.1093    0.0000 C.3     1  UNL1        0.1134
     56 C          12.2691   -0.3907    0.0000 C.3     1  UNL1        0.1184
     57 C          10.5370   -0.3907    0.0000 C.3     1  UNL1        0.0730
     58 C          11.4031   -1.8907    0.0000 C.3     1  UNL1        0.1888
     59 C          11.4031   -2.8907    0.0000 C.3     1  UNL1        0.1410
     60 C          10.5370   -3.3907    0.0000 C.3     1  UNL1        0.1209
     61 C           9.6710   -1.8907    0.0000 C.3     1  UNL1        0.1130
     62 C           9.6710   -2.8907    0.0000 C.3     1  UNL1        0.1123
     63 C           8.8050   -1.3907    0.0000 C.3     1  UNL1        0.0730
     64 C          12.7692   -4.2566    0.0000 C.3     1  UNL1        0.1885
     65 C           9.6710   -4.8907    0.0000 C.3     1  UNL1        0.1880
     66 C          13.7691   -4.2567    0.0000 C.3     1  UNL1        0.1341
     67 C          14.2691   -5.1227    0.0000 C.3     1  UNL1        0.1141
     68 C           9.6710   -5.8907    0.0000 C.3     1  UNL1        0.1341
     69 C          12.7692   -5.9887    0.0000 C.3     1  UNL1        0.1130
     70 C          13.7692   -5.9887    0.0000 C.3     1  UNL1        0.1119
     71 C           8.8050   -6.3907    0.0000 C.3     1  UNL1        0.1137
     72 C           7.9390   -4.8907    0.0000 C.3     1  UNL1        0.0792
     73 C           7.9390   -5.8907    0.0000 C.3     1  UNL1        0.1069
     74 C          12.2691   -6.8548    0.0000 C.3     1  UNL1        0.0730
     75 H           6.8160    4.0662    0.0000 H       1  UNL1        0.0310
     76 H           7.2076    3.8753    0.0000 H       1  UNL1        0.0307
     77 H           6.4430    6.6781    0.0000 H       1  UNL1        0.0335
     78 H           9.1517    4.9878    0.0000 H       1  UNL1        0.0309
     79 H           4.8529    4.5033    0.0000 H       1  UNL1        0.0600
     80 H           5.3980    4.0742    0.0000 H       1  UNL1        0.0293
     81 H           6.1854    3.8135    0.0000 H       1  UNL1        0.0293
     82 H           8.1561    6.6525    0.0000 H       1  UNL1        0.0271
     83 H           7.3591    6.6556    0.0000 H       1  UNL1        0.0271
     84 H           9.2300    5.5657    0.0000 H       1  UNL1        0.0268
     85 H           8.8342    6.2575    0.0000 H       1  UNL1        0.0268
     86 H           5.9747    6.8870    0.0000 H       1  UNL1        0.0354
     87 H           9.5233    2.5038    0.0000 H       1  UNL1        0.0332
     88 H           7.1193    3.2555    0.0000 H       1  UNL1        0.0293
     89 H           7.5077    2.5581    0.0000 H       1  UNL1        0.0293
     90 H           8.0841    2.3016    0.0000 H       1  UNL1        0.0596
     91 H           7.5117    6.6800    0.0000 H       1  UNL1        0.0235
     92 H           6.8941    7.3024    0.0000 H       1  UNL1        0.0235
     93 H           6.2717    6.6848    0.0000 H       1  UNL1        0.0235
     94 H          10.8448    5.2064    0.0000 H       1  UNL1        0.0296
     95 H          10.0466    5.1941    0.0000 H       1  UNL1        0.0296
     96 H          10.0586    2.0991    0.0000 H       1  UNL1        0.0295
     97 H          10.8568    2.0930    0.0000 H       1  UNL1        0.0295
     98 H          10.1402    5.1678    0.0000 H       1  UNL1        0.0235
     99 H           9.5178    5.7854    0.0000 H       1  UNL1        0.0235
    100 H           8.9002    5.1630    0.0000 H       1  UNL1        0.0235
    101 H          11.3929    4.8143    0.0000 H       1  UNL1        0.0619
    102 H          11.9394    3.4204    0.0000 H       1  UNL1        0.0623
    103 H           6.2619    7.5488    0.0000 H       1  UNL1        0.0234
    104 H           5.8648    8.3306    0.0000 H       1  UNL1        0.0234
    105 H           5.0830    7.9335    0.0000 H       1  UNL1        0.0234
    106 H           3.0597    5.6538    0.0000 H       1  UNL1        0.0317
    107 H           3.8522    5.5681    0.0000 H       1  UNL1        0.0317
    108 H           2.1043    6.8460    0.0000 H       1  UNL1        0.0270
    109 H           2.4263    6.1169    0.0000 H       1  UNL1        0.0270
    110 H           8.0770    1.3006    0.0000 H       1  UNL1        0.2098
    111 H           4.1693    8.5009    0.0000 H       1  UNL1        0.0563
    112 H           3.3768    8.5866    0.0000 H       1  UNL1        0.0563
    113 H           2.8739    8.2839    0.0000 H       1  UNL1        0.0320
    114 H          12.2562    5.3210    0.0000 H       1  UNL1        0.2099
    115 H          11.7322    1.9193    0.0000 H       1  UNL1        0.0938
    116 H           2.3659    8.7582    0.0000 H       1  UNL1        0.0233
    117 H           1.4995    8.6236    0.0000 H       1  UNL1        0.0233
    118 H           1.6341    7.7572    0.0000 H       1  UNL1        0.0233
    119 H          13.6721    0.7993    0.0000 H       1  UNL1        0.0671
    120 H          13.1351   -0.5107    0.0000 H       1  UNL1        0.0648
    121 H          10.8661    0.4193    0.0000 H       1  UNL1        0.0647
    122 H          11.7322   -0.7007    0.0000 H       1  UNL1        0.0651
    123 H          14.0011    2.2293    0.0000 H       1  UNL1        0.2101
    124 H          10.1385   -0.8656    0.0000 H       1  UNL1        0.0584
    125 H          10.9356   -0.8656    0.0000 H       1  UNL1        0.0584
    126 H          14.5381   -0.0807    0.0000 H       1  UNL1        0.2100
    127 H          11.9400   -2.2007    0.0000 H       1  UNL1        0.0938
    128 H           9.6710    0.7293    0.0000 H       1  UNL1        0.2095
    129 H          11.4031   -3.5107    0.0000 H       1  UNL1        0.0675
    130 H          11.0740   -3.7007    0.0000 H       1  UNL1        0.0651
    131 H           9.6710   -1.2707    0.0000 H       1  UNL1        0.0647
    132 H           9.6710   -3.5107    0.0000 H       1  UNL1        0.0647
    133 H           8.1944   -1.2830    0.0000 H       1  UNL1        0.0584
    134 H           8.5929   -1.9733    0.0000 H       1  UNL1        0.0584
    135 H          13.0792   -3.7197    0.0000 H       1  UNL1        0.0938
    136 H           8.2680   -3.0807    0.0000 H       1  UNL1        0.2100
    137 H          10.2080   -5.2007    0.0000 H       1  UNL1        0.0937
    138 H          14.3891   -4.2567    0.0000 H       1  UNL1        0.0671
    139 H          14.5791   -5.6596    0.0000 H       1  UNL1        0.0648
    140 H           9.6710   -6.5107    0.0000 H       1  UNL1        0.0671
    141 H           8.2680   -0.0807    0.0000 H       1  UNL1        0.2095
    142 H          12.1492   -5.9887    0.0000 H       1  UNL1        0.0647
    143 H          14.3892   -5.9887    0.0000 H       1  UNL1        0.0647
    144 H           8.2680   -6.7007    0.0000 H       1  UNL1        0.0647
    145 H          14.8891   -3.3907    0.0000 H       1  UNL1        0.2101
    146 H           7.7269   -4.3081    0.0000 H       1  UNL1        0.0587
    147 H           7.3284   -4.9983    0.0000 H       1  UNL1        0.0587
    148 H           7.4020   -5.5807    0.0000 H       1  UNL1        0.0643
    149 H          11.7942   -6.4562    0.0000 H       1  UNL1        0.0584
    150 H          11.7942   -7.2533    0.0000 H       1  UNL1        0.0584
    151 H          15.5791   -4.5858    0.0000 H       1  UNL1        0.2100
    152 H          10.5370   -7.0107    0.0000 H       1  UNL1        0.2101
    153 H          14.8891   -6.8548    0.0000 H       1  UNL1        0.2100
    154 H           8.2680   -7.7007    0.0000 H       1  UNL1        0.2100
    155 H           6.5360   -6.0807    0.0000 H       1  UNL1        0.2100
    156 H          12.4591   -8.2577    0.0000 H       1  UNL1        0.2095
@<TRIPOS>BOND
     1     1    31    1
     2    39     1    1
     3     2    39    1
     4     2    49    1
     5    38     3    1
     6     3   110    1
     7    45     4    1
     8    51     4    1
     9    44     5    1
    10     5   114    1
    11     6    51    1
    12     6    55    1
    13    53     7    1
    14     7   123    1
    15    54     8    1
    16     8   126    1
    17    56     9    1
    18    58     9    1
    19    10    57    1
    20    10   128    1
    21    11    58    1
    22    11    61    1
    23    59    12    1
    24    64    12    1
    25    60    13    1
    26    65    13    1
    27    62    14    1
    28    14   136    1
    29    15    64    1
    30    15    69    1
    31    16    63    1
    32    16   141    1
    33    17    65    1
    34    17    72    1
    35    66    18    1
    36    18   145    1
    37    67    19    1
    38    19   151    1
    39    68    20    1
    40    20   152    1
    41    70    21    1
    42    21   153    1
    43    71    22    1
    44    22   154    1
    45    73    23    1
    46    23   155    1
    47    24    74    1
    48    24   156    1
    49    25    26    1
    50    25    28    1
    51    25    33    1
    52    25    40    1
    53    26    27    1
    54    26    32    1
    55    26    75    1
    56    27    29    1
    57    27    37    1
    58    27    76    1
    59    28    31    1
    60    28    35    1
    61    28    77    1
    62    29    30    1
    63    29    34    1
    64    29    78    1
    65    30    36    1
    66    30    41    1
    67    30    43    1
    68    31    32    1
    69    31    79    1
    70    32    80    1
    71    32    81    1
    72    33    34    1
    73    33    82    1
    74    33    83    1
    75    34    84    1
    76    34    85    1
    77    35    39    1
    78    35    46    1
    79    35    86    1
    80    36    38    1
    81    36    42    1
    82    36    87    1
    83    37    38    1
    84    37    88    1
    85    37    89    1
    86    38    90    1
    87    39    47    1
    88    40    91    1
    89    40    92    1
    90    40    93    1
    91    41    44    1
    92    41    94    1
    93    41    95    1
    94    42    45    1
    95    42    96    1
    96    42    97    1
    97    43    98    1
    98    43    99    1
    99    43   100    1
   100    44    45    1
   101    44   101    1
   102    45   102    1
   103    46   103    1
   104    46   104    1
   105    46   105    1
   106    47    48    1
   107    47   106    1
   108    47   107    1
   109    48    50    1
   110    48   108    1
   111    48   109    1
   112    49    50    1
   113    49   111    1
   114    49   112    1
   115    50    52    1
   116    50   113    1
   117    51    53    1
   118    51   115    1
   119    52   116    1
   120    52   117    1
   121    52   118    1
   122    53    54    1
   123    53   119    1
   124    54    56    1
   125    54   120    1
   126    55    56    1
   127    55    57    1
   128    55   121    1
   129    56   122    1
   130    57   124    1
   131    57   125    1
   132    58    59    1
   133    58   127    1
   134    59    60    1
   135    59   129    1
   136    60    62    1
   137    60   130    1
   138    61    62    1
   139    61    63    1
   140    61   131    1
   141    62   132    1
   142    63   133    1
   143    63   134    1
   144    64    66    1
   145    64   135    1
   146    65    68    1
   147    65   137    1
   148    66    67    1
   149    66   138    1
   150    67    70    1
   151    67   139    1
   152    68    71    1
   153    68   140    1
   154    69    70    1
   155    69    74    1
   156    69   142    1
   157    70   143    1
   158    71    73    1
   159    71   144    1
   160    72    73    1
   161    72   146    1
   162    72   147    1
   163    73   148    1
   164    74   149    1
   165    74   150    1
