@<TRIPOS>MOLECULE
IMPHY012041
 20 21 0 0 0
SMALL
GASTEIGER

@<TRIPOS>ATOM
      1 O           5.9674    1.3831    0.0000 O.3     1  UNL1       -0.3903
      2 N           4.6783   -1.3831    0.0000 N.ar    1  UNL1       -0.3603
      3 C           3.7320   -0.0784    0.0000 C.ar    1  UNL1        0.0050
      4 C           4.6783    0.2264    0.0000 C.ar    1  UNL1        0.0028
      5 C           3.7320   -1.0784    0.0000 C.ar    1  UNL1        0.0468
      6 C           5.2619   -0.5784    0.0000 C.ar    1  UNL1        0.0081
      7 C           2.8660    0.4216    0.0000 C.ar    1  UNL1       -0.0523
      8 C           4.9889    1.1769    0.0000 C.3     1  UNL1        0.0712
      9 C           2.8660   -1.5784    0.0000 C.ar    1  UNL1       -0.0378
     10 C           2.0000   -0.0784    0.0000 C.ar    1  UNL1       -0.0611
     11 C           2.0000   -1.0784    0.0000 C.ar    1  UNL1       -0.0598
     12 H           5.8819   -0.5784    0.0000 H       1  UNL1        0.0810
     13 H           4.8709   -1.9724    0.0000 H       1  UNL1        0.1653
     14 H           2.8660    1.0416    0.0000 H       1  UNL1        0.0624
     15 H           4.9684    1.7965    0.0000 H       1  UNL1        0.0608
     16 H           4.3751    1.2642    0.0000 H       1  UNL1        0.0608
     17 H           2.8660   -2.1984    0.0000 H       1  UNL1        0.0638
     18 H           1.4631    0.2316    0.0000 H       1  UNL1        0.0618
     19 H           1.4631   -1.3884    0.0000 H       1  UNL1        0.0618
     20 H           6.1600    1.9724    0.0000 H       1  UNL1        0.2098
@<TRIPOS>BOND
     1     1     8    1
     2     1    20    1
     3     2     5   ar
     4     2     6   ar
     5     2    13    1
     6     3     4   ar
     7     3     5   ar
     8     3     7   ar
     9     4     6   ar
    10     4     8    1
    11     5     9   ar
    12     6    12    1
    13     7    10   ar
    14     7    14    1
    15     8    15    1
    16     8    16    1
    17     9    11   ar
    18     9    17    1
    19    10    11   ar
    20    10    18    1
    21    11    19    1
