@<TRIPOS>MOLECULE
IMPHY006185
 72 72 0 0 0
SMALL
GASTEIGER

@<TRIPOS>ATOM
      1 O           6.3301   -2.8450    0.0000 O.3     1  UNL1       -0.4616
      2 O           4.5981   -2.8450    0.0000 O.2     1  UNL1       -0.2456
      3 O           2.8660   -7.8450    0.0000 O.3     1  UNL1       -0.4914
      4 O           4.5981   -8.8450    0.0000 O.3     1  UNL1       -0.5033
      5 C           9.7942    3.1550    0.0000 C.3     1  UNL1       -0.0531
      6 C           9.7942    4.1550    0.0000 C.3     1  UNL1       -0.0531
      7 C           8.9282    2.6550    0.0000 C.3     1  UNL1       -0.0531
      8 C          10.6603    4.6550    0.0000 C.3     1  UNL1       -0.0531
      9 C           8.9282    1.6550    0.0000 C.3     1  UNL1       -0.0531
     10 C          10.6603    5.6550    0.0000 C.3     1  UNL1       -0.0531
     11 C           8.0622    1.1550    0.0000 C.3     1  UNL1       -0.0531
     12 C          11.5263    6.1550    0.0000 C.3     1  UNL1       -0.0531
     13 C           8.0622    0.1550    0.0000 C.3     1  UNL1       -0.0530
     14 C          11.5263    7.1550    0.0000 C.3     1  UNL1       -0.0531
     15 C           7.1962   -0.3450    0.0000 C.3     1  UNL1       -0.0500
     16 C          12.3923    7.6550    0.0000 C.3     1  UNL1       -0.0533
     17 C           7.1962   -1.3450    0.0000 C.3     1  UNL1       -0.0185
     18 C          12.3923    8.6550    0.0000 C.3     1  UNL1       -0.0559
     19 C           6.3301   -1.8450    0.0000 C.3     1  UNL1        0.0928
     20 C          13.2583    9.1550    0.0000 C.3     1  UNL1       -0.0653
     21 C           5.4641   -3.3450    0.0000 C.2     1  UNL1        0.3319
     22 C           5.4641   -4.3450    0.0000 C.2     1  UNL1        0.0231
     23 C           4.5981   -4.8450    0.0000 C.2     1  UNL1       -0.0477
     24 C           4.5981   -5.8450    0.0000 C.ar    1  UNL1       -0.0211
     25 C           3.7320   -6.3450    0.0000 C.ar    1  UNL1       -0.0092
     26 C           5.4641   -6.3450    0.0000 C.ar    1  UNL1       -0.0509
     27 C           3.7320   -7.3450    0.0000 C.ar    1  UNL1        0.1618
     28 C           5.4641   -7.3450    0.0000 C.ar    1  UNL1       -0.0160
     29 C           4.5981   -7.8450    0.0000 C.ar    1  UNL1        0.1585
     30 C           2.0000   -7.3450    0.0000 C.3     1  UNL1        0.0790
     31 H          10.0063    2.5724    0.0000 H       1  UNL1        0.0265
     32 H          10.4048    3.2627    0.0000 H       1  UNL1        0.0265
     33 H           9.5822    4.7376    0.0000 H       1  UNL1        0.0265
     34 H           9.1836    4.0473    0.0000 H       1  UNL1        0.0265
     35 H           8.7162    3.2376    0.0000 H       1  UNL1        0.0265
     36 H           8.3176    2.5473    0.0000 H       1  UNL1        0.0265
     37 H          10.8723    4.0724    0.0000 H       1  UNL1        0.0265
     38 H          11.2708    4.7627    0.0000 H       1  UNL1        0.0265
     39 H           9.1403    1.0724    0.0000 H       1  UNL1        0.0265
     40 H           9.5388    1.7627    0.0000 H       1  UNL1        0.0265
     41 H          10.4482    6.2376    0.0000 H       1  UNL1        0.0265
     42 H          10.0497    5.5473    0.0000 H       1  UNL1        0.0265
     43 H           7.8501    1.7376    0.0000 H       1  UNL1        0.0265
     44 H           7.4516    1.0473    0.0000 H       1  UNL1        0.0265
     45 H          11.7383    5.5724    0.0000 H       1  UNL1        0.0265
     46 H          12.1369    6.2627    0.0000 H       1  UNL1        0.0265
     47 H           8.2742   -0.4276    0.0000 H       1  UNL1        0.0265
     48 H           8.6728    0.2627    0.0000 H       1  UNL1        0.0265
     49 H          11.3142    7.7376    0.0000 H       1  UNL1        0.0265
     50 H          10.9157    7.0473    0.0000 H       1  UNL1        0.0265
     51 H           6.9841    0.2376    0.0000 H       1  UNL1        0.0266
     52 H           6.5856   -0.4527    0.0000 H       1  UNL1        0.0266
     53 H          12.6044    7.0724    0.0000 H       1  UNL1        0.0265
     54 H          13.0029    7.7627    0.0000 H       1  UNL1        0.0265
     55 H           7.4082   -1.9276    0.0000 H       1  UNL1        0.0298
     56 H           7.8067   -1.2373    0.0000 H       1  UNL1        0.0298
     57 H          12.1803    9.2376    0.0000 H       1  UNL1        0.0263
     58 H          11.7817    8.5473    0.0000 H       1  UNL1        0.0263
     59 H           6.1181   -1.2624    0.0000 H       1  UNL1        0.0697
     60 H           5.7196   -1.9527    0.0000 H       1  UNL1        0.0697
     61 H          13.5683    8.6181    0.0000 H       1  UNL1        0.0230
     62 H          13.7953    9.4650    0.0000 H       1  UNL1        0.0230
     63 H          12.9483    9.6919    0.0000 H       1  UNL1        0.0230
     64 H           6.0010   -4.6550    0.0000 H       1  UNL1        0.0689
     65 H           4.0611   -4.5350    0.0000 H       1  UNL1        0.0626
     66 H           3.1951   -6.0350    0.0000 H       1  UNL1        0.0661
     67 H           6.0010   -6.0350    0.0000 H       1  UNL1        0.0625
     68 H           6.0010   -7.6550    0.0000 H       1  UNL1        0.0655
     69 H           5.1350   -9.1550    0.0000 H       1  UNL1        0.2923
     70 H           2.3100   -6.8081    0.0000 H       1  UNL1        0.0660
     71 H           1.4631   -7.0350    0.0000 H       1  UNL1        0.0660
     72 H           1.6900   -7.8819    0.0000 H       1  UNL1        0.0660
@<TRIPOS>BOND
     1     1    19    1
     2     1    21    1
     3     2    21    2
     4     3    27    1
     5     3    30    1
     6     4    29    1
     7     4    69    1
     8     5     6    1
     9     5     7    1
    10     5    31    1
    11     5    32    1
    12     6     8    1
    13     6    33    1
    14     6    34    1
    15     7     9    1
    16     7    35    1
    17     7    36    1
    18     8    10    1
    19     8    37    1
    20     8    38    1
    21     9    11    1
    22     9    39    1
    23     9    40    1
    24    10    12    1
    25    10    41    1
    26    10    42    1
    27    11    13    1
    28    11    43    1
    29    11    44    1
    30    12    14    1
    31    12    45    1
    32    12    46    1
    33    13    15    1
    34    13    47    1
    35    13    48    1
    36    14    16    1
    37    14    49    1
    38    14    50    1
    39    15    17    1
    40    15    51    1
    41    15    52    1
    42    16    18    1
    43    16    53    1
    44    16    54    1
    45    17    19    1
    46    17    55    1
    47    17    56    1
    48    18    20    1
    49    18    57    1
    50    18    58    1
    51    19    59    1
    52    19    60    1
    53    20    61    1
    54    20    62    1
    55    20    63    1
    56    21    22    1
    57    22    23    2
    58    22    64    1
    59    23    24    1
    60    23    65    1
    61    24    25   ar
    62    24    26   ar
    63    25    27   ar
    64    25    66    1
    65    26    28   ar
    66    26    67    1
    67    27    29   ar
    68    28    29   ar
    69    28    68    1
    70    30    70    1
    71    30    71    1
    72    30    72    1
