@<TRIPOS>MOLECULE
IMPHY000236
 77 81 0 0 0
SMALL
GASTEIGER

@<TRIPOS>ATOM
      1 O           2.5393    0.3200    0.0000 O.3     1  UNL1       -0.4802
      2 O           3.3938   -1.1867    0.0000 O.2     1  UNL1       -0.2504
      3 O          10.9767    0.2706    0.0000 O.2     1  UNL1       -0.2960
      4 C           6.0713   -0.7142    0.0000 C.3     1  UNL1       -0.0232
      5 C           6.9373   -1.2142    0.0000 C.3     1  UNL1       -0.0228
      6 C           6.0713    0.2858    0.0000 C.3     1  UNL1       -0.0307
      7 C           7.8034   -0.7142    0.0000 C.3     1  UNL1       -0.0254
      8 C           5.1774    0.8205    0.0000 C.3     1  UNL1       -0.0154
      9 C           8.7134   -1.2210    0.0000 C.3     1  UNL1        0.0026
     10 C           4.2713    0.3066    0.0000 C.3     1  UNL1        0.0712
     11 C           8.7214   -2.2626    0.0000 C.3     1  UNL1       -0.0227
     12 C           5.1774   -1.2489    0.0000 C.3     1  UNL1       -0.0458
     13 C           6.9213   -2.2557    0.0000 C.3     1  UNL1       -0.0465
     14 C           6.9373    0.7858    0.0000 C.3     1  UNL1       -0.0491
     15 C           7.8034    0.2858    0.0000 C.3     1  UNL1       -0.0486
     16 C           4.2713   -0.7350    0.0000 C.3     1  UNL1       -0.0364
     17 C           7.8193   -2.7835    0.0000 C.3     1  UNL1       -0.0481
     18 C           4.9673    1.8344    0.0000 C.3     1  UNL1       -0.0163
     19 C           9.7094   -2.5725    0.0000 C.3     1  UNL1       -0.0126
     20 C           5.7294   -1.6539    0.0000 C.3     1  UNL1       -0.0588
     21 C           6.2945   -1.9802    0.0000 C.3     1  UNL1       -0.0588
     22 C           3.5090    1.0074    0.0000 C.3     1  UNL1       -0.0364
     23 C           3.9382    1.9497    0.0000 C.3     1  UNL1       -0.0452
     24 C           9.6965   -0.8960    0.0000 C.2     1  UNL1       -0.0051
     25 C           8.7057   -0.2211    0.0000 C.3     1  UNL1       -0.0549
     26 C          10.3109   -1.7296    0.0000 C.2     1  UNL1       -0.0713
     27 C           3.4014   -0.1867    0.0000 C.2     1  UNL1        0.3112
     28 C           5.6408    2.5735    0.0000 C.2     1  UNL1       -0.0763
     29 C          10.5240   -3.1526    0.0000 C.3     1  UNL1       -0.0560
     30 C           9.4094   -3.5264    0.0000 C.3     1  UNL1       -0.0560
     31 C           9.9998    0.0568    0.0000 C.2     1  UNL1        0.1465
     32 C           5.3375    3.5264    0.0000 C.3     1  UNL1       -0.0438
     33 C           6.6177    2.3598    0.0000 C.2     1  UNL1       -0.0994
     34 H           6.8074   -0.1392    0.0000 H       1  UNL1        0.0309
     35 H           8.5362   -0.2835    0.0000 H       1  UNL1        0.0315
     36 H           5.8701    1.3130    0.0000 H       1  UNL1        0.0320
     37 H           8.8146   -3.1075    0.0000 H       1  UNL1        0.0317
     38 H           4.7838   -1.7279    0.0000 H       1  UNL1        0.0271
     39 H           5.5820   -1.7187    0.0000 H       1  UNL1        0.0271
     40 H           6.3121   -2.1402    0.0000 H       1  UNL1        0.0271
     41 H           6.7032   -2.8361    0.0000 H       1  UNL1        0.0271
     42 H           7.3359    1.2607    0.0000 H       1  UNL1        0.0268
     43 H           6.5388    1.2607    0.0000 H       1  UNL1        0.0268
     44 H           8.4140    0.1781    0.0000 H       1  UNL1        0.0268
     45 H           8.0154    0.8684    0.0000 H       1  UNL1        0.0268
     46 H           3.6604   -0.6289    0.0000 H       1  UNL1        0.0276
     47 H           4.0622   -1.3187    0.0000 H       1  UNL1        0.0276
     48 H           7.4184   -3.2564    0.0000 H       1  UNL1        0.0269
     49 H           8.2166   -3.2594    0.0000 H       1  UNL1        0.0269
     50 H           5.5652    1.6706    0.0000 H       1  UNL1        0.0348
     51 H           5.1468   -1.4419    0.0000 H       1  UNL1        0.0235
     52 H           5.5174   -2.2366    0.0000 H       1  UNL1        0.0235
     53 H           6.3120   -1.8659    0.0000 H       1  UNL1        0.0235
     54 H           5.8196   -1.5817    0.0000 H       1  UNL1        0.0235
     55 H           5.8960   -2.4552    0.0000 H       1  UNL1        0.0235
     56 H           6.7695   -2.3788    0.0000 H       1  UNL1        0.0235
     57 H           2.9749    1.3223    0.0000 H       1  UNL1        0.0276
     58 H           3.1397    0.5093    0.0000 H       1  UNL1        0.0276
     59 H           4.0716    2.5551    0.0000 H       1  UNL1        0.0271
     60 H           3.3501    2.1460    0.0000 H       1  UNL1        0.0271
     61 H           9.3256   -0.2163    0.0000 H       1  UNL1        0.0238
     62 H           8.7009    0.3989    0.0000 H       1  UNL1        0.0238
     63 H           8.0857   -0.2259    0.0000 H       1  UNL1        0.0238
     64 H          10.9308   -1.7248    0.0000 H       1  UNL1        0.0581
     65 H          10.1643   -3.6576    0.0000 H       1  UNL1        0.0238
     66 H          11.0290   -3.5123    0.0000 H       1  UNL1        0.0238
     67 H          10.8836   -2.6476    0.0000 H       1  UNL1        0.0238
     68 H           8.8180   -3.3404    0.0000 H       1  UNL1        0.0238
     69 H           9.2234   -4.1178    0.0000 H       1  UNL1        0.0238
     70 H          10.0008   -3.7124    0.0000 H       1  UNL1        0.0238
     71 H           9.5822    0.5151    0.0000 H       1  UNL1        0.1078
     72 H           5.9283    3.7145    0.0000 H       1  UNL1        0.0274
     73 H           5.1494    4.1172    0.0000 H       1  UNL1        0.0274
     74 H           4.7467    3.3383    0.0000 H       1  UNL1        0.0274
     75 H           2.0000    0.0141    0.0000 H       1  UNL1        0.2951
     76 H           6.8058    1.7690    0.0000 H       1  UNL1        0.0534
     77 H           7.0353    2.8180    0.0000 H       1  UNL1        0.0534
@<TRIPOS>BOND
     1     1    27    1
     2     1    75    1
     3     2    27    2
     4     3    31    2
     5     4     5    1
     6     4     6    1
     7     4    12    1
     8     4    20    1
     9     5     7    1
    10     5    13    1
    11     5    21    1
    12     6     8    1
    13     6    14    1
    14     6    34    1
    15     7     9    1
    16     7    15    1
    17     7    35    1
    18     8    10    1
    19     8    18    1
    20     8    36    1
    21     9    11    1
    22     9    24    1
    23     9    25    1
    24    10    16    1
    25    10    22    1
    26    10    27    1
    27    11    17    1
    28    11    19    1
    29    11    37    1
    30    12    16    1
    31    12    38    1
    32    12    39    1
    33    13    17    1
    34    13    40    1
    35    13    41    1
    36    14    15    1
    37    14    42    1
    38    14    43    1
    39    15    44    1
    40    15    45    1
    41    16    46    1
    42    16    47    1
    43    17    48    1
    44    17    49    1
    45    18    23    1
    46    18    28    1
    47    18    50    1
    48    19    26    1
    49    19    29    1
    50    19    30    1
    51    20    51    1
    52    20    52    1
    53    20    53    1
    54    21    54    1
    55    21    55    1
    56    21    56    1
    57    22    23    1
    58    22    57    1
    59    22    58    1
    60    23    59    1
    61    23    60    1
    62    24    26    2
    63    24    31    1
    64    25    61    1
    65    25    62    1
    66    25    63    1
    67    26    64    1
    68    28    32    1
    69    28    33    2
    70    29    65    1
    71    29    66    1
    72    29    67    1
    73    30    68    1
    74    30    69    1
    75    30    70    1
    76    31    71    1
    77    32    72    1
    78    32    73    1
    79    32    74    1
    80    33    76    1
    81    33    77    1
