@<TRIPOS>MOLECULE
IMPHY013692
 137 145 0 0 0
SMALL
GASTEIGER

@<TRIPOS>ATOM
      1 O          10.3974    4.5666    0.0000 O.3     1  UNL1       -0.3476
      2 O           9.5534    6.1114    0.0000 O.3     1  UNL1       -0.3409
      3 O           6.7574    5.0759    0.0000 O.3     1  UNL1       -0.3883
      4 O           8.5991   -2.8259    0.0000 O.3     1  UNL1       -0.3449
      5 O           6.8671   -2.8259    0.0000 O.3     1  UNL1       -0.3461
      6 O           8.5991   -4.8258    0.0000 O.3     1  UNL1       -0.3378
      7 O           6.8671   -5.8258    0.0000 O.3     1  UNL1       -0.3401
      8 O           5.1350   -4.8258    0.0000 O.3     1  UNL1       -0.3868
      9 O           9.4651   -3.3259    0.0000 O.3     1  UNL1       -0.3461
     10 O           5.1350   -5.8258    0.0000 O.3     1  UNL1       -0.3405
     11 O          10.3312   -5.8258    0.0000 O.3     1  UNL1       -0.3841
     12 O           6.8671   -7.8258    0.0000 O.3     1  UNL1       -0.3841
     13 O          12.0632   -4.8258    0.0000 O.3     1  UNL1       -0.3864
     14 O          12.0632   -2.8259    0.0000 O.3     1  UNL1       -0.3869
     15 O           5.1350   -8.8259    0.0000 O.3     1  UNL1       -0.3864
     16 O           3.4030   -7.8258    0.0000 O.3     1  UNL1       -0.3865
     17 O           2.5369   -6.3258    0.0000 O.3     1  UNL1       -0.3924
     18 C           9.5256    3.0700    0.0000 C.3     1  UNL1        0.0081
     19 C           9.5377    2.0284    0.0000 C.3     1  UNL1       -0.0206
     20 C           8.6616    3.5733    0.0000 C.3     1  UNL1       -0.0223
     21 C           8.6376    1.5041    0.0000 C.3     1  UNL1       -0.0294
     22 C           8.6654    4.5733    0.0000 C.3     1  UNL1        0.0452
     23 C           9.5334    5.0700    0.0000 C.3     1  UNL1        0.1770
     24 C           9.1635    4.0714    0.0000 C.3     1  UNL1        0.0103
     25 C           8.6251    0.4192    0.0000 C.3     1  UNL1       -0.0252
     26 C          10.3936    3.5666    0.0000 C.3     1  UNL1        0.0575
     27 C           7.7496    3.0700    0.0000 C.3     1  UNL1       -0.0488
     28 C          10.4876    1.5041    0.0000 C.3     1  UNL1       -0.0465
     29 C           9.5626   -0.1269    0.0000 C.3     1  UNL1       -0.0278
     30 C           7.7376    2.0284    0.0000 C.3     1  UNL1       -0.0489
     31 C           7.7574    5.0836    0.0000 C.3     1  UNL1        0.0739
     32 C          10.5001    0.4192    0.0000 C.3     1  UNL1       -0.0486
     33 C          10.4018    2.5317    0.0000 C.3     1  UNL1       -0.0587
     34 C           9.5757   -1.2570    0.0000 C.3     1  UNL1       -0.0052
     35 C           7.6356   -0.1269    0.0000 C.3     1  UNL1       -0.0447
     36 C           7.7610    0.9225    0.0000 C.3     1  UNL1       -0.0590
     37 C           7.7534    6.1253    0.0000 C.3     1  UNL1        0.0063
     38 C           8.5991   -1.8258    0.0000 C.3     1  UNL1        0.0672
     39 C           7.6226   -1.2570    0.0000 C.3     1  UNL1       -0.0255
     40 C           8.6574    6.6426    0.0000 C.3     1  UNL1        0.0829
     41 C           7.2640    4.2138    0.0000 C.3     1  UNL1       -0.0355
     42 C          10.5756   -1.2493    0.0000 C.3     1  UNL1       -0.0572
     43 C          10.0823   -2.1192    0.0000 C.3     1  UNL1       -0.0572
     44 C           8.6651    7.6426    0.0000 C.2     1  UNL1       -0.0567
     45 C           7.7331   -3.3259    0.0000 C.3     1  UNL1        0.1882
     46 C           9.5350    8.1359    0.0000 C.2     1  UNL1       -0.0772
     47 C           7.7331   -4.3258    0.0000 C.3     1  UNL1        0.1410
     48 C           9.5427    9.1358    0.0000 C.3     1  UNL1       -0.0440
     49 C          10.3971    7.6292    0.0000 C.3     1  UNL1       -0.0440
     50 C           6.8671   -4.8258    0.0000 C.3     1  UNL1        0.1206
     51 C           6.0010   -3.3259    0.0000 C.3     1  UNL1        0.0792
     52 C           6.0010   -4.3258    0.0000 C.3     1  UNL1        0.1073
     53 C           9.4651   -4.3258    0.0000 C.3     1  UNL1        0.1881
     54 C           6.0010   -6.3258    0.0000 C.3     1  UNL1        0.1884
     55 C          10.3312   -4.8258    0.0000 C.3     1  UNL1        0.1341
     56 C           6.0010   -7.3258    0.0000 C.3     1  UNL1        0.1341
     57 C          11.1972   -4.3258    0.0000 C.3     1  UNL1        0.1137
     58 C          10.3312   -2.8259    0.0000 C.3     1  UNL1        0.0792
     59 C          11.1972   -3.3259    0.0000 C.3     1  UNL1        0.1069
     60 C           5.1350   -7.8258    0.0000 C.3     1  UNL1        0.1141
     61 C           4.2690   -6.3258    0.0000 C.3     1  UNL1        0.1130
     62 C           4.2690   -7.3258    0.0000 C.3     1  UNL1        0.1119
     63 C           3.4030   -5.8258    0.0000 C.3     1  UNL1        0.0730
     64 H           9.1997    3.8812    0.0000 H       1  UNL1        0.0312
     65 H           8.0983    1.1983    0.0000 H       1  UNL1        0.0312
     66 H           8.1297    4.2612    0.0000 H       1  UNL1        0.0384
     67 H           8.6678    4.4438    0.0000 H       1  UNL1        0.0323
     68 H           8.6650    3.7028    0.0000 H       1  UNL1        0.0323
     69 H          10.6034    2.9832    0.0000 H       1  UNL1        0.0567
     70 H          11.0046    3.6719    0.0000 H       1  UNL1        0.0567
     71 H           7.5473    3.6560    0.0000 H       1  UNL1        0.0268
     72 H           7.1376    2.9710    0.0000 H       1  UNL1        0.0268
     73 H          11.0996    1.4051    0.0000 H       1  UNL1        0.0271
     74 H          10.6899    2.0902    0.0000 H       1  UNL1        0.0271
     75 H          10.1019   -0.4328    0.0000 H       1  UNL1        0.0312
     76 H           7.1280    2.1416    0.0000 H       1  UNL1        0.0268
     77 H           7.5218    1.4472    0.0000 H       1  UNL1        0.0268
     78 H          10.7159   -0.1620    0.0000 H       1  UNL1        0.0268
     79 H          11.1097    0.5323    0.0000 H       1  UNL1        0.0268
     80 H          10.7138    1.9960    0.0000 H       1  UNL1        0.0235
     81 H          10.9375    2.8438    0.0000 H       1  UNL1        0.0235
     82 H          10.0897    3.0675    0.0000 H       1  UNL1        0.0235
     83 H           7.4333    0.4592    0.0000 H       1  UNL1        0.0271
     84 H           7.0236   -0.2259    0.0000 H       1  UNL1        0.0271
     85 H           8.0730    1.4583    0.0000 H       1  UNL1        0.0235
     86 H           7.2252    1.2346    0.0000 H       1  UNL1        0.0235
     87 H           7.4489    0.3868    0.0000 H       1  UNL1        0.0235
     88 H           7.5420    6.7082    0.0000 H       1  UNL1        0.0321
     89 H           7.1429    6.0168    0.0000 H       1  UNL1        0.0321
     90 H           9.1366   -2.1348    0.0000 H       1  UNL1        0.0602
     91 H           7.0130   -1.1439    0.0000 H       1  UNL1        0.0290
     92 H           7.4068   -1.8382    0.0000 H       1  UNL1        0.0290
     93 H           9.1973    6.9474    0.0000 H       1  UNL1        0.0642
     94 H           6.7247    4.5197    0.0000 H       1  UNL1        0.0257
     95 H           6.9582    3.6745    0.0000 H       1  UNL1        0.0257
     96 H           7.8034    3.9079    0.0000 H       1  UNL1        0.0257
     97 H          10.5804   -1.8693    0.0000 H       1  UNL1        0.0236
     98 H          11.1956   -1.2445    0.0000 H       1  UNL1        0.0236
     99 H          10.5709   -0.6293    0.0000 H       1  UNL1        0.0236
    100 H           9.5478   -2.4333    0.0000 H       1  UNL1        0.0236
    101 H          10.3965   -2.6537    0.0000 H       1  UNL1        0.0236
    102 H          10.6169   -1.8050    0.0000 H       1  UNL1        0.0236
    103 H           6.4433    5.6105    0.0000 H       1  UNL1        0.2102
    104 H           8.1306    7.9567    0.0000 H       1  UNL1        0.0597
    105 H           8.2700   -3.6358    0.0000 H       1  UNL1        0.0937
    106 H           7.7331   -4.9458    0.0000 H       1  UNL1        0.0675
    107 H          10.1627    9.1311    0.0000 H       1  UNL1        0.0274
    108 H           9.5475    9.7558    0.0000 H       1  UNL1        0.0274
    109 H           8.9227    9.1406    0.0000 H       1  UNL1        0.0274
    110 H          10.0830    7.0947    0.0000 H       1  UNL1        0.0274
    111 H          10.9317    7.3151    0.0000 H       1  UNL1        0.0274
    112 H          10.7113    8.1638    0.0000 H       1  UNL1        0.0274
    113 H           6.3301   -5.1358    0.0000 H       1  UNL1        0.0651
    114 H           5.7890   -2.7433    0.0000 H       1  UNL1        0.0587
    115 H           5.3905   -3.4335    0.0000 H       1  UNL1        0.0587
    116 H           5.4641   -4.0158    0.0000 H       1  UNL1        0.0643
    117 H           9.4651   -4.9458    0.0000 H       1  UNL1        0.0937
    118 H           4.5981   -4.5158    0.0000 H       1  UNL1        0.2100
    119 H           6.0010   -5.7058    0.0000 H       1  UNL1        0.0938
    120 H          10.8681   -5.1358    0.0000 H       1  UNL1        0.0671
    121 H           6.0010   -7.9458    0.0000 H       1  UNL1        0.0671
    122 H          11.7341   -4.0158    0.0000 H       1  UNL1        0.0647
    123 H          10.7297   -2.3509    0.0000 H       1  UNL1        0.0587
    124 H           9.9326   -2.3509    0.0000 H       1  UNL1        0.0587
    125 H          11.1972   -2.7059    0.0000 H       1  UNL1        0.0643
    126 H           4.5981   -8.1358    0.0000 H       1  UNL1        0.0648
    127 H          10.8681   -6.1358    0.0000 H       1  UNL1        0.2101
    128 H           4.2690   -5.7058    0.0000 H       1  UNL1        0.0647
    129 H           4.2690   -7.9458    0.0000 H       1  UNL1        0.0647
    130 H           7.4040   -7.5158    0.0000 H       1  UNL1        0.2101
    131 H          12.6002   -4.5158    0.0000 H       1  UNL1        0.2100
    132 H           3.8015   -5.3509    0.0000 H       1  UNL1        0.0584
    133 H           3.0044   -5.3509    0.0000 H       1  UNL1        0.0584
    134 H          12.0632   -2.2058    0.0000 H       1  UNL1        0.2100
    135 H           5.6720   -9.1358    0.0000 H       1  UNL1        0.2100
    136 H           3.4030   -8.4459    0.0000 H       1  UNL1        0.2100
    137 H           2.0000   -6.0158    0.0000 H       1  UNL1        0.2095
@<TRIPOS>BOND
     1     1    23    1
     2     1    26    1
     3     2    23    1
     4     2    40    1
     5     3    31    1
     6     3   103    1
     7     4    38    1
     8     4    45    1
     9     5    45    1
    10     5    51    1
    11     6    47    1
    12     6    53    1
    13     7    50    1
    14     7    54    1
    15     8    52    1
    16     8   118    1
    17     9    53    1
    18     9    58    1
    19    10    54    1
    20    10    61    1
    21    11    55    1
    22    11   127    1
    23    12    56    1
    24    12   130    1
    25    13    57    1
    26    13   131    1
    27    14    59    1
    28    14   134    1
    29    15    60    1
    30    15   135    1
    31    16    62    1
    32    16   136    1
    33    17    63    1
    34    17   137    1
    35    18    19    1
    36    18    20    1
    37    18    24    1
    38    18    26    1
    39    19    21    1
    40    19    28    1
    41    19    33    1
    42    20    22    1
    43    20    27    1
    44    20    64    1
    45    21    25    1
    46    21    30    1
    47    21    65    1
    48    22    23    1
    49    22    31    1
    50    22    66    1
    51    23    24    1
    52    24    67    1
    53    24    68    1
    54    25    29    1
    55    25    35    1
    56    25    36    1
    57    26    69    1
    58    26    70    1
    59    27    30    1
    60    27    71    1
    61    27    72    1
    62    28    32    1
    63    28    73    1
    64    28    74    1
    65    29    32    1
    66    29    34    1
    67    29    75    1
    68    30    76    1
    69    30    77    1
    70    31    37    1
    71    31    41    1
    72    32    78    1
    73    32    79    1
    74    33    80    1
    75    33    81    1
    76    33    82    1
    77    34    38    1
    78    34    42    1
    79    34    43    1
    80    35    39    1
    81    35    83    1
    82    35    84    1
    83    36    85    1
    84    36    86    1
    85    36    87    1
    86    37    40    1
    87    37    88    1
    88    37    89    1
    89    38    39    1
    90    38    90    1
    91    39    91    1
    92    39    92    1
    93    40    44    1
    94    40    93    1
    95    41    94    1
    96    41    95    1
    97    41    96    1
    98    42    97    1
    99    42    98    1
   100    42    99    1
   101    43   100    1
   102    43   101    1
   103    43   102    1
   104    44    46    2
   105    44   104    1
   106    45    47    1
   107    45   105    1
   108    46    48    1
   109    46    49    1
   110    47    50    1
   111    47   106    1
   112    48   107    1
   113    48   108    1
   114    48   109    1
   115    49   110    1
   116    49   111    1
   117    49   112    1
   118    50    52    1
   119    50   113    1
   120    51    52    1
   121    51   114    1
   122    51   115    1
   123    52   116    1
   124    53    55    1
   125    53   117    1
   126    54    56    1
   127    54   119    1
   128    55    57    1
   129    55   120    1
   130    56    60    1
   131    56   121    1
   132    57    59    1
   133    57   122    1
   134    58    59    1
   135    58   123    1
   136    58   124    1
   137    59   125    1
   138    60    62    1
   139    60   126    1
   140    61    62    1
   141    61    63    1
   142    61   128    1
   143    62   129    1
   144    63   132    1
   145    63   133    1
