@<TRIPOS>MOLECULE
IMPHY012557
 64 67 0 0 0
SMALL
GASTEIGER

@<TRIPOS>ATOM
      1 O           2.5357   -2.7092    0.0000 O.3     1  UNL1       -0.3915
      2 N          10.1642    1.8046    0.0000 N.3     1  UNL1       -0.3054
      3 C           7.9288    0.3431    0.0000 C.3     1  UNL1       -0.0247
      4 C           7.9288   -0.6569    0.0000 C.3     1  UNL1       -0.0319
      5 C           7.0628   -1.1569    0.0000 C.3     1  UNL1       -0.0307
      6 C           6.1968   -0.6569    0.0000 C.3     1  UNL1       -0.0285
      7 C           8.8750    0.6478    0.0000 C.3     1  UNL1       -0.0200
      8 C           7.0628    0.8431    0.0000 C.3     1  UNL1       -0.0468
      9 C           5.2868   -1.1638    0.0000 C.3     1  UNL1       -0.0078
     10 C           8.8750   -0.9616    0.0000 C.3     1  UNL1       -0.0491
     11 C           6.1968    0.3431    0.0000 C.3     1  UNL1       -0.0486
     12 C           9.4586   -0.1569    0.0000 C.3     1  UNL1       -0.0480
     13 C           7.0789   -2.1984    0.0000 C.3     1  UNL1       -0.0311
     14 C           7.9288    1.3431    0.0000 C.3     1  UNL1       -0.0590
     15 C           9.1857    1.5983    0.0000 C.3     1  UNL1        0.0103
     16 C           5.2787   -2.2054    0.0000 C.2     1  UNL1       -0.0648
     17 C           4.3599   -0.5997    0.0000 C.3     1  UNL1       -0.0413
     18 C           6.1808   -2.7262    0.0000 C.2     1  UNL1       -0.0839
     19 C           5.2945   -0.1638    0.0000 C.3     1  UNL1       -0.0556
     20 C           4.3433   -2.7551    0.0000 C.3     1  UNL1       -0.0051
     21 C           3.4120   -1.1276    0.0000 C.3     1  UNL1       -0.0258
     22 C           3.4037   -2.2126    0.0000 C.3     1  UNL1        0.0590
     23 C           8.5179    2.3426    0.0000 C.3     1  UNL1       -0.0492
     24 C          10.4749    2.7551    0.0000 C.3     1  UNL1       -0.0128
     25 C          10.8321    1.0603    0.0000 C.3     1  UNL1       -0.0128
     26 H           8.0188   -1.5021    0.0000 H       1  UNL1        0.0309
     27 H           7.8022   -1.5762    0.0000 H       1  UNL1        0.0309
     28 H           6.9329   -0.2319    0.0000 H       1  UNL1        0.0312
     29 H           9.7148    0.7797    0.0000 H       1  UNL1        0.0321
     30 H           7.4613    1.3180    0.0000 H       1  UNL1        0.0271
     31 H           6.6643    1.3180    0.0000 H       1  UNL1        0.0271
     32 H           8.6240   -1.5286    0.0000 H       1  UNL1        0.0268
     33 H           9.4124   -1.2709    0.0000 H       1  UNL1        0.0268
     34 H           5.9847    0.9257    0.0000 H       1  UNL1        0.0268
     35 H           5.5862    0.2354    0.0000 H       1  UNL1        0.0268
     36 H           9.9195   -0.5716    0.0000 H       1  UNL1        0.0269
     37 H           9.9195    0.2578    0.0000 H       1  UNL1        0.0269
     38 H           7.2969   -2.7788    0.0000 H       1  UNL1        0.0310
     39 H           7.6880   -2.0829    0.0000 H       1  UNL1        0.0310
     40 H           8.5488    1.3431    0.0000 H       1  UNL1        0.0235
     41 H           7.9288    1.9631    0.0000 H       1  UNL1        0.0235
     42 H           7.3088    1.3431    0.0000 H       1  UNL1        0.0235
     43 H           9.3783    2.1877    0.0000 H       1  UNL1        0.0462
     44 H           4.7681   -0.1330    0.0000 H       1  UNL1        0.0274
     45 H           3.9700   -0.1176    0.0000 H       1  UNL1        0.0274
     46 H           6.1832   -3.3462    0.0000 H       1  UNL1        0.0572
     47 H           5.9145   -0.1686    0.0000 H       1  UNL1        0.0238
     48 H           5.2993    0.4562    0.0000 H       1  UNL1        0.0238
     49 H           4.6745   -0.1590    0.0000 H       1  UNL1        0.0238
     50 H           3.9460   -3.2311    0.0000 H       1  UNL1        0.0335
     51 H           4.7443   -3.2280    0.0000 H       1  UNL1        0.0335
     52 H           3.2075   -0.5423    0.0000 H       1  UNL1        0.0290
     53 H           2.8004   -1.2290    0.0000 H       1  UNL1        0.0290
     54 H           3.4025   -2.8326    0.0000 H       1  UNL1        0.0596
     55 H           8.9793    2.7567    0.0000 H       1  UNL1        0.0245
     56 H           8.1038    2.8041    0.0000 H       1  UNL1        0.0245
     57 H           8.0564    1.9286    0.0000 H       1  UNL1        0.0245
     58 H          11.0642    2.5625    0.0000 H       1  UNL1        0.0391
     59 H          10.6675    3.3444    0.0000 H       1  UNL1        0.0391
     60 H           9.8856    2.9477    0.0000 H       1  UNL1        0.0391
     61 H          10.3706    0.6462    0.0000 H       1  UNL1        0.0391
     62 H          11.2461    0.5988    0.0000 H       1  UNL1        0.0391
     63 H          11.2935    1.4743    0.0000 H       1  UNL1        0.0391
     64 H           2.0000   -2.3972    0.0000 H       1  UNL1        0.2098
@<TRIPOS>BOND
     1    22     1    1
     2     1    64    1
     3    15     2    1
     4     2    24    1
     5     2    25    1
     6     3     4    1
     7     3     7    1
     8     3     8    1
     9     3    14    1
    10     4     5    1
    11     4    10    1
    12     4    26    1
    13     5     6    1
    14     5    13    1
    15     5    27    1
    16     6     9    1
    17     6    11    1
    18     6    28    1
    19     7    12    1
    20     7    15    1
    21     7    29    1
    22     8    11    1
    23     8    30    1
    24     8    31    1
    25     9    16    1
    26     9    17    1
    27     9    19    1
    28    10    12    1
    29    10    32    1
    30    10    33    1
    31    11    34    1
    32    11    35    1
    33    12    36    1
    34    12    37    1
    35    13    18    1
    36    13    38    1
    37    13    39    1
    38    14    40    1
    39    14    41    1
    40    14    42    1
    41    15    23    1
    42    15    43    1
    43    16    18    2
    44    16    20    1
    45    17    21    1
    46    17    44    1
    47    17    45    1
    48    18    46    1
    49    19    47    1
    50    19    48    1
    51    19    49    1
    52    20    22    1
    53    20    50    1
    54    20    51    1
    55    21    22    1
    56    21    52    1
    57    21    53    1
    58    22    54    1
    59    23    55    1
    60    23    56    1
    61    23    57    1
    62    24    58    1
    63    24    59    1
    64    24    60    1
    65    25    61    1
    66    25    62    1
    67    25    63    1
