@<TRIPOS>MOLECULE
IMPHY006262
 310 323 0 0 0
SMALL
GASTEIGER

@<TRIPOS>ATOM
      1 O          22.4781   -4.6206    0.0000 O.3     1  UNL1       -0.3449
      2 O          25.2722    2.8053    0.0000 O.3     1  UNL1       -0.3906
      3 O          21.5759    5.2661    0.0000 O.3     1  UNL1       -0.4575
      4 O          24.3483    4.8660    0.0000 O.3     1  UNL1       -0.4318
      5 O          25.0039    3.7601    0.0000 O.2     1  UNL1       -0.2500
      6 O          20.7460   -4.6206    0.0000 O.3     1  UNL1       -0.3405
      7 O          22.7140    5.4395    0.0000 O.3     1  UNL1       -0.3312
      8 O          22.4781   -6.6206    0.0000 O.3     1  UNL1       -0.3841
      9 O          20.8949    3.7761    0.0000 O.2     1  UNL1       -0.2452
     10 O          20.7460   -7.6206    0.0000 O.3     1  UNL1       -0.3864
     11 O          25.0106    6.7531    0.0000 O.3     1  UNL1       -0.3366
     12 O          19.0140   -6.6206    0.0000 O.3     1  UNL1       -0.3865
     13 O          23.7073    8.2703    0.0000 O.3     1  UNL1       -0.3863
     14 O          18.1480   -5.1206    0.0000 O.3     1  UNL1       -0.3461
     15 O          21.7419    7.9002    0.0000 O.3     1  UNL1       -0.3865
     16 O          18.9663    6.7460    0.0000 O.3     1  UNL1       -0.3902
     17 O          25.3310    5.0510    0.0000 O.3     1  UNL1       -0.3431
     18 O          20.4281    6.7717    0.0000 O.3     1  UNL1       -0.3924
     19 O          17.2819   -3.6206    0.0000 O.3     1  UNL1       -0.3461
     20 O          26.9760    7.1232    0.0000 O.3     1  UNL1       -0.3841
     21 O          28.2792    5.6061    0.0000 O.3     1  UNL1       -0.3400
     22 O          27.6170    3.7189    0.0000 O.3     1  UNL1       -0.3402
     23 O          16.4159   -6.1206    0.0000 O.3     1  UNL1       -0.3378
     24 O          15.5100    5.7194    0.0000 O.3     1  UNL1       -0.3384
     25 O          14.6839   -5.1206    0.0000 O.3     1  UNL1       -0.3864
     26 O          14.6839   -3.1206    0.0000 O.3     1  UNL1       -0.3869
     27 O          28.5997    3.9039    0.0000 O.3     1  UNL1       -0.3405
     28 O          26.3278    2.4886    0.0000 O.3     1  UNL1       -0.3405
     29 O          15.5499   -7.6206    0.0000 O.3     1  UNL1       -0.3461
     30 O          13.7780    5.7060    0.0000 O.3     1  UNL1       -0.3419
     31 O          30.2447    5.9761    0.0000 O.3     1  UNL1       -0.3841
     32 O          28.8543    1.9294    0.0000 O.3     1  UNL1       -0.3841
     33 O          14.8339   -4.9706    0.0000 O.3     1  UNL1       -0.3841
     34 O          31.5479    4.4590    0.0000 O.3     1  UNL1       -0.3864
     35 O          27.5348    0.1997    0.0000 O.3     1  UNL1       -0.3864
     36 O          15.5254    3.7194    0.0000 O.3     1  UNL1       -0.3841
     37 O          30.8856    2.5718    0.0000 O.3     1  UNL1       -0.3865
     38 O          12.9518   -6.1206    0.0000 O.3     1  UNL1       -0.3864
     39 O          12.9518   -8.1206    0.0000 O.3     1  UNL1       -0.3869
     40 O          13.8012    2.7061    0.0000 O.3     1  UNL1       -0.3853
     41 O          12.0615    3.6927    0.0000 O.3     1  UNL1       -0.4528
     42 O          25.5633   -0.0766    0.0000 O.3     1  UNL1       -0.3924
     43 O          29.5718    1.4432    0.0000 O.3     1  UNL1       -0.3924
     44 O          11.1839    5.1860    0.0000 O.2     1  UNL1       -0.2453
     45 O           6.0033    3.1460    0.0000 O.3     1  UNL1       -0.3384
     46 O           5.1258    4.6393    0.0000 O.3     1  UNL1       -0.3430
     47 O           4.2790    2.1327    0.0000 O.3     1  UNL1       -0.3841
     48 O           2.5393    3.1193    0.0000 O.3     1  UNL1       -0.3864
     49 O           2.5239    5.1192    0.0000 O.3     1  UNL1       -0.3866
     50 C          23.3792    0.0797    0.0000 C.3     1  UNL1       -0.0193
     51 C          22.5151   -0.4237    0.0000 C.3     1  UNL1       -0.0257
     52 C          22.5030   -1.4652    0.0000 C.3     1  UNL1       -0.0250
     53 C          23.3753    1.0796    0.0000 C.3     1  UNL1       -0.0028
     54 C          23.4031   -1.9895    0.0000 C.3     1  UNL1       -0.0278
     55 C          24.2911   -0.4237    0.0000 C.3     1  UNL1       -0.0463
     56 C          22.5074    1.5763    0.0000 C.2     1  UNL1       -0.0627
     57 C          24.3031   -1.4652    0.0000 C.3     1  UNL1       -0.0486
     58 C          23.4156   -3.0744    0.0000 C.3     1  UNL1       -0.0052
     59 C          22.4873    2.6177    0.0000 C.3     1  UNL1       -0.0005
     60 C          21.6471    0.0730    0.0000 C.3     1  UNL1       -0.0306
     61 C          24.2833    1.5900    0.0000 C.3     1  UNL1       -0.0162
     62 C          21.5531   -1.9895    0.0000 C.3     1  UNL1       -0.0447
     63 C          23.3833    3.1490    0.0000 C.3     1  UNL1        0.1033
     64 C          24.2874    2.6316    0.0000 C.3     1  UNL1        0.0724
     65 C          24.3633    0.2571    0.0000 C.3     1  UNL1       -0.0585
     66 C          22.4781   -3.6206    0.0000 C.3     1  UNL1        0.0672
     67 C          21.6433    1.0730    0.0000 C.2     1  UNL1       -0.0836
     68 C          21.6389   -0.9619    0.0000 C.3     1  UNL1       -0.0590
     69 C          21.5406   -3.0744    0.0000 C.3     1  UNL1       -0.0255
     70 C          24.3608    0.9098    0.0000 C.3     1  UNL1       -0.0552
     71 C          21.5333    3.1347    0.0000 C.3     1  UNL1       -0.0368
     72 C          23.3875    4.2339    0.0000 C.3     1  UNL1        0.0036
     73 C          21.5124    4.2195    0.0000 C.3     1  UNL1        0.0028
     74 C          22.4457    4.7728    0.0000 C.3     1  UNL1        0.1096
     75 C          24.4156   -3.0667    0.0000 C.3     1  UNL1       -0.0572
     76 C          23.9223   -3.9366    0.0000 C.3     1  UNL1       -0.0572
     77 C          24.0172    3.9224    0.0000 C.2     1  UNL1        0.3188
     78 C          21.1025    5.2939    0.0000 C.3     1  UNL1       -0.0564
     79 C          20.3626    4.2018    0.0000 C.3     1  UNL1       -0.0564
     80 C          21.6121   -5.1206    0.0000 C.3     1  UNL1        0.1882
     81 C          21.6121   -6.1206    0.0000 C.3     1  UNL1        0.1341
     82 C          23.6967    5.6245    0.0000 C.3     1  UNL1        0.2341
     83 C          20.7137    4.7595    0.0000 C.2     1  UNL1        0.3373
     84 C          20.7460   -6.6206    0.0000 C.3     1  UNL1        0.1141
     85 C          19.8800   -5.1206    0.0000 C.3     1  UNL1        0.1134
     86 C          24.0278    6.5681    0.0000 C.3     1  UNL1        0.1520
     87 C          19.8800   -6.1206    0.0000 C.3     1  UNL1        0.1119
     88 C          19.8439    5.2528    0.0000 C.2     1  UNL1        0.0578
     89 C          23.3762    7.3267    0.0000 C.3     1  UNL1        0.1155
     90 C          22.0624    6.1981    0.0000 C.3     1  UNL1        0.1140
     91 C          19.0140   -4.6206    0.0000 C.3     1  UNL1        0.0796
     92 C          22.3935    7.1416    0.0000 C.3     1  UNL1        0.1120
     93 C          19.8362    6.2527    0.0000 C.3     1  UNL1        0.0757
     94 C          18.9817    4.7461    0.0000 C.2     1  UNL1       -0.0717
     95 C          21.0797    6.0131    0.0000 C.3     1  UNL1        0.0731
     96 C          25.6622    5.9946    0.0000 C.3     1  UNL1        0.1885
     97 C          18.1119    5.2394    0.0000 C.3     1  UNL1       -0.0310
     98 C          26.6449    6.1796    0.0000 C.3     1  UNL1        0.1345
     99 C          17.2819   -4.6206    0.0000 C.3     1  UNL1        0.1880
    100 C          27.2965    5.4210    0.0000 C.3     1  UNL1        0.1209
    101 C          17.2497    4.7328    0.0000 C.3     1  UNL1       -0.0168
    102 C          25.9826    4.2924    0.0000 C.3     1  UNL1        0.0877
    103 C          26.9654    4.4775    0.0000 C.3     1  UNL1        0.1164
    104 C          16.4159   -5.1206    0.0000 C.3     1  UNL1        0.1406
    105 C          16.3799    5.2261    0.0000 C.3     1  UNL1        0.0879
    106 C          15.5499   -4.6206    0.0000 C.3     1  UNL1        0.1141
    107 C          25.6515    3.3488    0.0000 C.3     1  UNL1       -0.0360
    108 C          16.4159   -3.1206    0.0000 C.3     1  UNL1        0.0792
    109 C          15.5499   -3.6206    0.0000 C.3     1  UNL1        0.1069
    110 C          16.8732    6.0959    0.0000 C.3     1  UNL1       -0.0321
    111 C          28.9308    4.8475    0.0000 C.3     1  UNL1        0.1884
    112 C          15.8866    4.3562    0.0000 C.2     1  UNL1       -0.0599
    113 C          27.2858    2.7753    0.0000 C.3     1  UNL1        0.1884
    114 C          15.5499   -6.6206    0.0000 C.3     1  UNL1        0.1881
    115 C          29.9136    5.0325    0.0000 C.3     1  UNL1        0.1341
    116 C          14.6479    5.2127    0.0000 C.3     1  UNL1        0.1889
    117 C          27.8546    1.9528    0.0000 C.3     1  UNL1        0.1341
    118 C          14.6839   -6.1206    0.0000 C.3     1  UNL1        0.1341
    119 C          16.3932    3.4941    0.0000 C.2     1  UNL1       -0.1000
    120 C          30.5652    4.2740    0.0000 C.3     1  UNL1        0.1141
    121 C          27.2481    1.1577    0.0000 C.3     1  UNL1        0.1141
    122 C          26.3045    1.4888    0.0000 C.3     1  UNL1        0.1131
    123 C          29.2513    3.1454    0.0000 C.3     1  UNL1        0.1130
    124 C          14.6556    4.2127    0.0000 C.3     1  UNL1        0.1352
    125 C          30.2340    3.3304    0.0000 C.3     1  UNL1        0.1119
    126 C          13.8178   -6.6206    0.0000 C.3     1  UNL1        0.1137
    127 C          14.6839   -8.1206    0.0000 C.3     1  UNL1        0.0792
    128 C          13.8178   -7.6206    0.0000 C.3     1  UNL1        0.1069
    129 C          13.7935    3.7061    0.0000 C.3     1  UNL1        0.1250
    130 C          12.9159    5.1994    0.0000 C.3     1  UNL1        0.0984
    131 C          12.9236    4.1994    0.0000 C.3     1  UNL1        0.1574
    132 C          25.4820    0.9201    0.0000 C.3     1  UNL1        0.0730
    133 C          28.9202    2.2018    0.0000 C.3     1  UNL1        0.0730
    134 C          12.0460    5.6927    0.0000 C.3     1  UNL1       -0.0350
    135 C          11.1916    4.1860    0.0000 C.2     1  UNL1        0.3350
    136 C          10.3295    3.6794    0.0000 C.2     1  UNL1        0.0296
    137 C          10.3372    2.6794    0.0000 C.3     1  UNL1       -0.0332
    138 C           9.4596    4.1727    0.0000 C.2     1  UNL1       -0.0742
    139 C           8.5974    3.6660    0.0000 C.3     1  UNL1       -0.0311
    140 C           7.7276    4.1593    0.0000 C.3     1  UNL1       -0.0168
    141 C           6.8654    3.6527    0.0000 C.3     1  UNL1        0.0879
    142 C           7.3721    2.7905    0.0000 C.3     1  UNL1       -0.0321
    143 C           6.3588    4.5148    0.0000 C.2     1  UNL1       -0.0599
    144 C           5.1334    3.6393    0.0000 C.3     1  UNL1        0.1888
    145 C           6.8521    5.3847    0.0000 C.2     1  UNL1       -0.1000
    146 C           4.2713    3.1327    0.0000 C.3     1  UNL1        0.1341
    147 C           3.4014    3.6260    0.0000 C.3     1  UNL1        0.1140
    148 C           4.2559    5.1326    0.0000 C.3     1  UNL1        0.0873
    149 C           3.3938    4.6259    0.0000 C.3     1  UNL1        0.1095
    150 C           4.2482    6.1326    0.0000 C.3     1  UNL1       -0.0361
    151 H          23.2495   -0.8515    0.0000 H       1  UNL1        0.0315
    152 H          24.1425   -2.4088    0.0000 H       1  UNL1        0.0312
    153 H          24.9031   -0.5227    0.0000 H       1  UNL1        0.0271
    154 H          24.4934    0.1624    0.0000 H       1  UNL1        0.0271
    155 H          24.5189   -2.0465    0.0000 H       1  UNL1        0.0268
    156 H          24.9127   -1.3521    0.0000 H       1  UNL1        0.0268
    157 H          21.7612    2.1758    0.0000 H       1  UNL1        0.0357
    158 H          21.0361    0.1783    0.0000 H       1  UNL1        0.0310
    159 H          21.4373   -0.5104    0.0000 H       1  UNL1        0.0310
    160 H          24.4901    1.0055    0.0000 H       1  UNL1        0.0299
    161 H          24.8946    1.6937    0.0000 H       1  UNL1        0.0299
    162 H          21.3508   -1.4035    0.0000 H       1  UNL1        0.0271
    163 H          20.9411   -2.0886    0.0000 H       1  UNL1        0.0271
    164 H          24.3938    3.2424    0.0000 H       1  UNL1        0.0605
    165 H          24.4733   -0.3531    0.0000 H       1  UNL1        0.0235
    166 H          24.9734    0.3671    0.0000 H       1  UNL1        0.0235
    167 H          24.2533    0.8673    0.0000 H       1  UNL1        0.0235
    168 H          21.9406   -3.9295    0.0000 H       1  UNL1        0.0602
    169 H          21.1051    1.3809    0.0000 H       1  UNL1        0.0572
    170 H          21.9510   -0.4262    0.0000 H       1  UNL1        0.0235
    171 H          21.1032   -0.6498    0.0000 H       1  UNL1        0.0235
    172 H          21.3269   -1.4976    0.0000 H       1  UNL1        0.0235
    173 H          20.9310   -2.9613    0.0000 H       1  UNL1        0.0290
    174 H          21.3248   -3.6557    0.0000 H       1  UNL1        0.0290
    175 H          24.2555    0.2988    0.0000 H       1  UNL1        0.0238
    176 H          24.9718    0.8045    0.0000 H       1  UNL1        0.0238
    177 H          24.4661    1.5208    0.0000 H       1  UNL1        0.0238
    178 H          20.9206    3.2290    0.0000 H       1  UNL1        0.0278
    179 H          21.3356    2.5471    0.0000 H       1  UNL1        0.0278
    180 H          23.9979    4.1255    0.0000 H       1  UNL1        0.0313
    181 H          23.5988    4.8168    0.0000 H       1  UNL1        0.0313
    182 H          22.7526    5.3115    0.0000 H       1  UNL1        0.0739
    183 H          24.4204   -3.6867    0.0000 H       1  UNL1        0.0236
    184 H          25.0356   -3.0620    0.0000 H       1  UNL1        0.0236
    185 H          24.4108   -2.4468    0.0000 H       1  UNL1        0.0236
    186 H          23.3878   -4.2507    0.0000 H       1  UNL1        0.0236
    187 H          24.2364   -4.4711    0.0000 H       1  UNL1        0.0236
    188 H          24.4568   -3.6225    0.0000 H       1  UNL1        0.0236
    189 H          25.6707    2.3303    0.0000 H       1  UNL1        0.2098
    190 H          21.6818    5.5150    0.0000 H       1  UNL1        0.0236
    191 H          20.8815    5.8732    0.0000 H       1  UNL1        0.0236
    192 H          20.5232    5.0729    0.0000 H       1  UNL1        0.0236
    193 H          20.3530    4.8217    0.0000 H       1  UNL1        0.0236
    194 H          19.7427    4.1922    0.0000 H       1  UNL1        0.0236
    195 H          20.3721    3.5818    0.0000 H       1  UNL1        0.0236
    196 H          21.6121   -4.5006    0.0000 H       1  UNL1        0.0937
    197 H          21.6121   -6.7406    0.0000 H       1  UNL1        0.0671
    198 H          24.3060    5.7392    0.0000 H       1  UNL1        0.1085
    199 H          20.2091   -6.9306    0.0000 H       1  UNL1        0.0648
    200 H          19.8800   -4.5006    0.0000 H       1  UNL1        0.0647
    201 H          24.2331    7.1531    0.0000 H       1  UNL1        0.0687
    202 H          19.3431   -5.8106    0.0000 H       1  UNL1        0.0647
    203 H          22.4781   -7.2406    0.0000 H       1  UNL1        0.2101
    204 H          22.9722    7.7970    0.0000 H       1  UNL1        0.0648
    205 H          21.8570    5.6130    0.0000 H       1  UNL1        0.0647
    206 H          19.4125   -4.1456    0.0000 H       1  UNL1        0.0587
    207 H          18.6155   -4.1456    0.0000 H       1  UNL1        0.0587
    208 H          23.1151    7.7267    0.0000 H       1  UNL1        0.0647
    209 H          20.2091   -7.9306    0.0000 H       1  UNL1        0.2100
    210 H          19.0140   -7.2406    0.0000 H       1  UNL1        0.2100
    211 H          20.4476    6.1498    0.0000 H       1  UNL1        0.0609
    212 H          20.0437    6.8370    0.0000 H       1  UNL1        0.0609
    213 H          18.9865    4.1261    0.0000 H       1  UNL1        0.0578
    214 H          20.5463    5.6969    0.0000 H       1  UNL1        0.0584
    215 H          21.2984    5.4330    0.0000 H       1  UNL1        0.0584
    216 H          25.8675    6.5796    0.0000 H       1  UNL1        0.0938
    217 H          23.3034    8.7406    0.0000 H       1  UNL1        0.2100
    218 H          21.9472    8.4852    0.0000 H       1  UNL1        0.2100
    219 H          18.5067    5.7174    0.0000 H       1  UNL1        0.0309
    220 H          17.7097    5.7113    0.0000 H       1  UNL1        0.0309
    221 H          27.2542    6.2943    0.0000 H       1  UNL1        0.0671
    222 H          17.2819   -5.2406    0.0000 H       1  UNL1        0.0937
    223 H          18.9615    7.3660    0.0000 H       1  UNL1        0.2099
    224 H          27.7005    4.9507    0.0000 H       1  UNL1        0.0651
    225 H          20.6334    7.3567    0.0000 H       1  UNL1        0.2095
    226 H          16.8549    4.2547    0.0000 H       1  UNL1        0.0299
    227 H          17.6519    4.2609    0.0000 H       1  UNL1        0.0299
    228 H          25.3733    4.1777    0.0000 H       1  UNL1        0.0621
    229 H          26.7601    3.8924    0.0000 H       1  UNL1        0.0650
    230 H          15.8790   -5.4306    0.0000 H       1  UNL1        0.0675
    231 H          26.5720    7.5935    0.0000 H       1  UNL1        0.2101
    232 H          15.0130   -4.3106    0.0000 H       1  UNL1        0.0648
    233 H          25.0665    3.5542    0.0000 H       1  UNL1        0.0255
    234 H          25.4462    2.7638    0.0000 H       1  UNL1        0.0255
    235 H          26.2365    3.1435    0.0000 H       1  UNL1        0.0255
    236 H          16.8144   -2.6456    0.0000 H       1  UNL1        0.0587
    237 H          16.0174   -2.6456    0.0000 H       1  UNL1        0.0587
    238 H          15.5499   -3.0006    0.0000 H       1  UNL1        0.0643
    239 H          17.4125    5.7901    0.0000 H       1  UNL1        0.0260
    240 H          17.1790    6.6352    0.0000 H       1  UNL1        0.0260
    241 H          16.3339    6.4018    0.0000 H       1  UNL1        0.0260
    242 H          28.3215    4.7328    0.0000 H       1  UNL1        0.0938
    243 H          15.2666    4.3514    0.0000 H       1  UNL1        0.0594
    244 H          26.8578    3.2238    0.0000 H       1  UNL1        0.0938
    245 H          15.5499   -6.0006    0.0000 H       1  UNL1        0.0937
    246 H          14.1469   -4.8106    0.0000 H       1  UNL1        0.2100
    247 H          30.5229    5.1472    0.0000 H       1  UNL1        0.0671
    248 H          14.6839   -2.5006    0.0000 H       1  UNL1        0.2100
    249 H          15.1872    4.9069    0.0000 H       1  UNL1        0.0938
    250 H          28.1489    2.4985    0.0000 H       1  UNL1        0.0671
    251 H          14.1681   -5.7764    0.0000 H       1  UNL1        0.0671
    252 H          16.0874    2.9548    0.0000 H       1  UNL1        0.0533
    253 H          17.0132    3.4988    0.0000 H       1  UNL1        0.0533
    254 H          30.9692    3.8037    0.0000 H       1  UNL1        0.0648
    255 H          27.8580    1.0465    0.0000 H       1  UNL1        0.0648
    256 H          25.7588    1.7831    0.0000 H       1  UNL1        0.0647
    257 H          28.6420    3.0306    0.0000 H       1  UNL1        0.0647
    258 H          14.6604    3.5928    0.0000 H       1  UNL1        0.0671
    259 H          30.0287    2.7454    0.0000 H       1  UNL1        0.0647
    260 H          13.2809   -6.9306    0.0000 H       1  UNL1        0.0647
    261 H          14.2853   -8.5955    0.0000 H       1  UNL1        0.0587
    262 H          15.0824   -8.5955    0.0000 H       1  UNL1        0.0587
    263 H          13.8178   -8.2406    0.0000 H       1  UNL1        0.0643
    264 H          13.2589    3.3920    0.0000 H       1  UNL1        0.0659
    265 H          30.8540    6.0908    0.0000 H       1  UNL1        0.2101
    266 H          12.9111    5.8193    0.0000 H       1  UNL1        0.0632
    267 H          29.1517    1.3854    0.0000 H       1  UNL1        0.2101
    268 H          12.3843    4.5052    0.0000 H       1  UNL1        0.0787
    269 H          25.2233    1.4836    0.0000 H       1  UNL1        0.0584
    270 H          24.8822    0.7632    0.0000 H       1  UNL1        0.0584
    271 H          28.3797    2.5055    0.0000 H       1  UNL1        0.0584
    272 H          28.5272    1.7222    0.0000 H       1  UNL1        0.0584
    273 H          14.2969   -4.6606    0.0000 H       1  UNL1        0.2101
    274 H          31.9519    3.9887    0.0000 H       1  UNL1        0.2100
    275 H          27.1093   -0.2512    0.0000 H       1  UNL1        0.2100
    276 H          15.5302    3.0994    0.0000 H       1  UNL1        0.2101
    277 H          30.6803    1.9868    0.0000 H       1  UNL1        0.2100
    278 H          12.4149   -6.4306    0.0000 H       1  UNL1        0.2100
    279 H          12.3519    6.2320    0.0000 H       1  UNL1        0.0256
    280 H          11.5067    5.9985    0.0000 H       1  UNL1        0.0256
    281 H          11.7402    5.1534    0.0000 H       1  UNL1        0.0256
    282 H          12.9518   -8.7406    0.0000 H       1  UNL1        0.2100
    283 H          13.2666    2.3920    0.0000 H       1  UNL1        0.2101
    284 H          25.0533   -0.4292    0.0000 H       1  UNL1        0.2095
    285 H          29.3665    0.8582    0.0000 H       1  UNL1        0.2095
    286 H           9.7172    2.6746    0.0000 H       1  UNL1        0.0280
    287 H          10.3419    2.0594    0.0000 H       1  UNL1        0.0280
    288 H          10.9571    2.6842    0.0000 H       1  UNL1        0.0280
    289 H           9.4548    4.7927    0.0000 H       1  UNL1        0.0577
    290 H           8.2026    3.1880    0.0000 H       1  UNL1        0.0309
    291 H           8.9996    3.1942    0.0000 H       1  UNL1        0.0309
    292 H           8.1224    4.6373    0.0000 H       1  UNL1        0.0299
    293 H           7.3254    4.6312    0.0000 H       1  UNL1        0.0299
    294 H           6.8376    2.4764    0.0000 H       1  UNL1        0.0260
    295 H           7.6862    2.2560    0.0000 H       1  UNL1        0.0260
    296 H           7.9066    3.1047    0.0000 H       1  UNL1        0.0260
    297 H           5.7388    4.5100    0.0000 H       1  UNL1        0.0594
    298 H           5.1382    3.0193    0.0000 H       1  UNL1        0.0938
    299 H           7.4721    5.3894    0.0000 H       1  UNL1        0.0533
    300 H           6.5380    5.9192    0.0000 H       1  UNL1        0.0533
    301 H           3.7368    2.8185    0.0000 H       1  UNL1        0.0671
    302 H           2.8622    3.9318    0.0000 H       1  UNL1        0.0648
    303 H           4.7904    5.4467    0.0000 H       1  UNL1        0.0621
    304 H           3.3890    5.2459    0.0000 H       1  UNL1        0.0646
    305 H           3.7445    1.8186    0.0000 H       1  UNL1        0.2101
    306 H           4.8682    6.1374    0.0000 H       1  UNL1        0.0255
    307 H           4.2434    6.7526    0.0000 H       1  UNL1        0.0255
    308 H           3.6282    6.1278    0.0000 H       1  UNL1        0.0255
    309 H           2.0000    3.4252    0.0000 H       1  UNL1        0.2100
    310 H           2.5191    5.7392    0.0000 H       1  UNL1        0.2100
@<TRIPOS>BOND
     1    66     1    1
     2    80     1    1
     3    64     2    1
     4     2   189    1
     5    74     3    1
     6     3    83    1
     7     4    77    1
     8    82     4    1
     9     5    77    2
    10     6    80    1
    11     6    85    1
    12     7    82    1
    13     7    90    1
    14    81     8    1
    15     8   203    1
    16     9    83    2
    17    84    10    1
    18    10   209    1
    19    86    11    1
    20    96    11    1
    21    87    12    1
    22    12   210    1
    23    89    13    1
    24    13   217    1
    25    14    91    1
    26    99    14    1
    27    92    15    1
    28    15   218    1
    29    16    93    1
    30    16   223    1
    31    17    96    1
    32    17   102    1
    33    18    95    1
    34    18   225    1
    35    19    99    1
    36    19   108    1
    37    98    20    1
    38    20   231    1
    39   100    21    1
    40   111    21    1
    41   103    22    1
    42   113    22    1
    43   104    23    1
    44   114    23    1
    45   105    24    1
    46   116    24    1
    47   106    25    1
    48    25   246    1
    49   109    26    1
    50    26   248    1
    51    27   111    1
    52    27   123    1
    53    28   113    1
    54    28   122    1
    55    29   114    1
    56    29   127    1
    57    30   116    1
    58    30   130    1
    59   115    31    1
    60    31   265    1
    61   117    32    1
    62    32   267    1
    63   118    33    1
    64    33   273    1
    65   120    34    1
    66    34   274    1
    67   121    35    1
    68    35   275    1
    69   124    36    1
    70    36   276    1
    71   125    37    1
    72    37   277    1
    73   126    38    1
    74    38   278    1
    75   128    39    1
    76    39   282    1
    77   129    40    1
    78    40   283    1
    79   131    41    1
    80    41   135    1
    81    42   132    1
    82    42   284    1
    83    43   133    1
    84    43   285    1
    85    44   135    2
    86   141    45    1
    87   144    45    1
    88    46   144    1
    89    46   148    1
    90   146    47    1
    91    47   305    1
    92   147    48    1
    93    48   309    1
    94   149    49    1
    95    49   310    1
    96    50    51    1
    97    50    53    1
    98    50    55    1
    99    50    65    1
   100    51    52    1
   101    51    60    1
   102    51   151    1
   103    52    54    1
   104    52    62    1
   105    52    68    1
   106    53    56    1
   107    53    61    1
   108    53    70    1
   109    54    57    1
   110    54    58    1
   111    54   152    1
   112    55    57    1
   113    55   153    1
   114    55   154    1
   115    56    59    1
   116    56    67    2
   117    57   155    1
   118    57   156    1
   119    58    66    1
   120    58    75    1
   121    58    76    1
   122    59    63    1
   123    59    71    1
   124    59   157    1
   125    60    67    1
   126    60   158    1
   127    60   159    1
   128    61    64    1
   129    61   160    1
   130    61   161    1
   131    62    69    1
   132    62   162    1
   133    62   163    1
   134    63    64    1
   135    63    72    1
   136    63    77    1
   137    64   164    1
   138    65   165    1
   139    65   166    1
   140    65   167    1
   141    66    69    1
   142    66   168    1
   143    67   169    1
   144    68   170    1
   145    68   171    1
   146    68   172    1
   147    69   173    1
   148    69   174    1
   149    70   175    1
   150    70   176    1
   151    70   177    1
   152    71    73    1
   153    71   178    1
   154    71   179    1
   155    72    74    1
   156    72   180    1
   157    72   181    1
   158    73    74    1
   159    73    78    1
   160    73    79    1
   161    74   182    1
   162    75   183    1
   163    75   184    1
   164    75   185    1
   165    76   186    1
   166    76   187    1
   167    76   188    1
   168    78   190    1
   169    78   191    1
   170    78   192    1
   171    79   193    1
   172    79   194    1
   173    79   195    1
   174    80    81    1
   175    80   196    1
   176    81    84    1
   177    81   197    1
   178    82    86    1
   179    82   198    1
   180    83    88    1
   181    84    87    1
   182    84   199    1
   183    85    87    1
   184    85    91    1
   185    85   200    1
   186    86    89    1
   187    86   201    1
   188    87   202    1
   189    88    93    1
   190    88    94    2
   191    89    92    1
   192    89   204    1
   193    90    92    1
   194    90    95    1
   195    90   205    1
   196    91   206    1
   197    91   207    1
   198    92   208    1
   199    93   211    1
   200    93   212    1
   201    94    97    1
   202    94   213    1
   203    95   214    1
   204    95   215    1
   205    96    98    1
   206    96   216    1
   207    97   101    1
   208    97   219    1
   209    97   220    1
   210    98   100    1
   211    98   221    1
   212    99   104    1
   213    99   222    1
   214   100   103    1
   215   100   224    1
   216   101   105    1
   217   101   226    1
   218   101   227    1
   219   102   103    1
   220   102   107    1
   221   102   228    1
   222   103   229    1
   223   104   106    1
   224   104   230    1
   225   105   110    1
   226   105   112    1
   227   106   109    1
   228   106   232    1
   229   107   233    1
   230   107   234    1
   231   107   235    1
   232   108   109    1
   233   108   236    1
   234   108   237    1
   235   109   238    1
   236   110   239    1
   237   110   240    1
   238   110   241    1
   239   111   115    1
   240   111   242    1
   241   112   119    2
   242   112   243    1
   243   113   117    1
   244   113   244    1
   245   114   118    1
   246   114   245    1
   247   115   120    1
   248   115   247    1
   249   116   124    1
   250   116   249    1
   251   117   121    1
   252   117   250    1
   253   118   126    1
   254   118   251    1
   255   119   252    1
   256   119   253    1
   257   120   125    1
   258   120   254    1
   259   121   122    1
   260   121   255    1
   261   122   132    1
   262   122   256    1
   263   123   125    1
   264   123   133    1
   265   123   257    1
   266   124   129    1
   267   124   258    1
   268   125   259    1
   269   126   128    1
   270   126   260    1
   271   127   128    1
   272   127   261    1
   273   127   262    1
   274   128   263    1
   275   129   131    1
   276   129   264    1
   277   130   131    1
   278   130   134    1
   279   130   266    1
   280   131   268    1
   281   132   269    1
   282   132   270    1
   283   133   271    1
   284   133   272    1
   285   134   279    1
   286   134   280    1
   287   134   281    1
   288   135   136    1
   289   136   137    1
   290   136   138    2
   291   137   286    1
   292   137   287    1
   293   137   288    1
   294   138   139    1
   295   138   289    1
   296   139   140    1
   297   139   290    1
   298   139   291    1
   299   140   141    1
   300   140   292    1
   301   140   293    1
   302   141   142    1
   303   141   143    1
   304   142   294    1
   305   142   295    1
   306   142   296    1
   307   143   145    2
   308   143   297    1
   309   144   146    1
   310   144   298    1
   311   145   299    1
   312   145   300    1
   313   146   147    1
   314   146   301    1
   315   147   149    1
   316   147   302    1
   317   148   149    1
   318   148   150    1
   319   148   303    1
   320   149   304    1
   321   150   306    1
   322   150   307    1
   323   150   308    1
