@<TRIPOS>MOLECULE
IMPHY014577
 159 164 0 0 0
SMALL
GASTEIGER

@<TRIPOS>ATOM
      1 O          11.1972   -7.0000    0.0000 O.3     1  UNL1       -0.3378
      2 O           6.0010    7.0000    0.0000 O.3     1  UNL1       -0.3378
      3 O           9.4651   -5.0000    0.0000 O.3     1  UNL1       -0.3405
      4 O           9.4651   -8.0000    0.0000 O.3     1  UNL1       -0.3401
      5 O           7.7331    5.0000    0.0000 O.3     1  UNL1       -0.3405
      6 O           7.7331    8.0000    0.0000 O.3     1  UNL1       -0.3401
      7 O          12.0632   -5.5000    0.0000 O.3     1  UNL1       -0.3431
      8 O           5.1350    5.5000    0.0000 O.3     1  UNL1       -0.3431
      9 O          11.1972   -5.0000    0.0000 O.3     1  UNL1       -0.3444
     10 O           6.0010    5.0000    0.0000 O.3     1  UNL1       -0.3446
     11 O           7.7331   -7.0000    0.0000 O.3     1  UNL1       -0.3865
     12 O           9.4651    7.0000    0.0000 O.3     1  UNL1       -0.3865
     13 O           7.7331   -8.0000    0.0000 O.3     1  UNL1       -0.3461
     14 O           9.4651    8.0000    0.0000 O.3     1  UNL1       -0.3461
     15 O          12.9292   -8.0000    0.0000 O.3     1  UNL1       -0.3841
     16 O           4.2690    8.0000    0.0000 O.3     1  UNL1       -0.3841
     17 O          14.6613   -7.0000    0.0000 O.3     1  UNL1       -0.3864
     18 O           2.5369    7.0000    0.0000 O.3     1  UNL1       -0.3864
     19 O          14.6613   -5.0000    0.0000 O.3     1  UNL1       -0.3866
     20 O           2.5369    5.0000    0.0000 O.3     1  UNL1       -0.3866
     21 O           9.4651  -10.0000    0.0000 O.3     1  UNL1       -0.3841
     22 O           7.7331   10.0000    0.0000 O.3     1  UNL1       -0.3841
     23 O           7.7331   -4.0000    0.0000 O.3     1  UNL1       -0.3924
     24 O           9.4651    4.0000    0.0000 O.3     1  UNL1       -0.3924
     25 O           7.7331  -11.0000    0.0000 O.3     1  UNL1       -0.3864
     26 O           9.4651   11.0000    0.0000 O.3     1  UNL1       -0.3864
     27 O           6.0010  -10.0000    0.0000 O.3     1  UNL1       -0.3869
     28 O          11.1972   10.0000    0.0000 O.3     1  UNL1       -0.3869
     29 C           9.4651   -7.0000    0.0000 C.3     1  UNL1        0.1209
     30 C           7.7331    7.0000    0.0000 C.3     1  UNL1        0.1209
     31 C          10.3312   -6.5000    0.0000 C.3     1  UNL1        0.1410
     32 C           6.8671    6.5000    0.0000 C.3     1  UNL1        0.1410
     33 C           8.5991   -6.5000    0.0000 C.3     1  UNL1        0.1123
     34 C           8.5991    6.5000    0.0000 C.3     1  UNL1        0.1123
     35 C           8.5991   -5.5000    0.0000 C.3     1  UNL1        0.1130
     36 C          10.3312   -5.5000    0.0000 C.3     1  UNL1        0.1886
     37 C           8.5991    5.5000    0.0000 C.3     1  UNL1        0.1130
     38 C           6.8671    5.5000    0.0000 C.3     1  UNL1        0.1886
     39 C          12.0632   -6.5000    0.0000 C.3     1  UNL1        0.1884
     40 C           5.1350    6.5000    0.0000 C.3     1  UNL1        0.1884
     41 C          12.9292   -7.0000    0.0000 C.3     1  UNL1        0.1341
     42 C           4.2690    7.0000    0.0000 C.3     1  UNL1        0.1341
     43 C          13.7953   -6.5000    0.0000 C.3     1  UNL1        0.1140
     44 C           8.5991   -8.5000    0.0000 C.3     1  UNL1        0.1880
     45 C           3.4030    6.5000    0.0000 C.3     1  UNL1        0.1140
     46 C           8.5991    8.5000    0.0000 C.3     1  UNL1        0.1880
     47 C          13.7953   -5.5000    0.0000 C.3     1  UNL1        0.1095
     48 C           3.4030    5.5000    0.0000 C.3     1  UNL1        0.1095
     49 C          12.9292   -5.0000    0.0000 C.3     1  UNL1        0.0873
     50 C           4.2690    5.0000    0.0000 C.3     1  UNL1        0.0873
     51 C           8.5991   -9.5000    0.0000 C.3     1  UNL1        0.1341
     52 C           8.5991    9.5000    0.0000 C.3     1  UNL1        0.1341
     53 C           7.7331   -5.0000    0.0000 C.3     1  UNL1        0.0730
     54 C           9.4651    5.0000    0.0000 C.3     1  UNL1        0.0730
     55 C           7.7331  -10.0000    0.0000 C.3     1  UNL1        0.1137
     56 C           9.4651   10.0000    0.0000 C.3     1  UNL1        0.1137
     57 C           6.8671   -9.5000    0.0000 C.3     1  UNL1        0.1069
     58 C          10.3312    9.5000    0.0000 C.3     1  UNL1        0.1069
     59 C           6.8671   -8.5000    0.0000 C.3     1  UNL1        0.0792
     60 C          10.3312    8.5000    0.0000 C.3     1  UNL1        0.0792
     61 C          12.9292   -4.0000    0.0000 C.3     1  UNL1       -0.0361
     62 C           4.2690    4.0000    0.0000 C.3     1  UNL1       -0.0361
     63 C          11.1972   -4.0000    0.0000 C.3     1  UNL1        0.0716
     64 C           6.0010    4.0000    0.0000 C.3     1  UNL1        0.0692
     65 C          10.3312   -3.5000    0.0000 C.2     1  UNL1       -0.0511
     66 C           6.8671    3.5000    0.0000 C.2     1  UNL1       -0.0596
     67 C          10.3312   -2.5000    0.0000 C.2     1  UNL1       -0.0826
     68 C           6.8671    2.5000    0.0000 C.2     1  UNL1       -0.0741
     69 C           9.4651   -4.0000    0.0000 C.3     1  UNL1       -0.0416
     70 C           9.4651   -2.0000    0.0000 C.3     1  UNL1       -0.0308
     71 C           7.7331    2.0000    0.0000 C.3     1  UNL1       -0.0285
     72 C           9.4651   -1.0000    0.0000 C.3     1  UNL1       -0.0286
     73 C           6.0010    2.0000    0.0000 C.3     1  UNL1       -0.0437
     74 C           7.7331    1.0000    0.0000 C.3     1  UNL1       -0.0308
     75 C           8.5991   -0.5000    0.0000 C.2     1  UNL1       -0.0762
     76 C           8.5991    0.5000    0.0000 C.2     1  UNL1       -0.0847
     77 C           7.7331   -1.0000    0.0000 C.3     1  UNL1       -0.0438
     78 H           8.9282   -7.3100    0.0000 H       1  UNL1        0.0651
     79 H           7.1962    7.3100    0.0000 H       1  UNL1        0.0651
     80 H          10.3312   -7.1200    0.0000 H       1  UNL1        0.0675
     81 H           6.8671    7.1200    0.0000 H       1  UNL1        0.0675
     82 H           8.5991   -7.1200    0.0000 H       1  UNL1        0.0647
     83 H           8.5991    7.1200    0.0000 H       1  UNL1        0.0647
     84 H           8.5991   -4.8800    0.0000 H       1  UNL1        0.0647
     85 H          10.3312   -4.8800    0.0000 H       1  UNL1        0.0938
     86 H           8.5991    4.8800    0.0000 H       1  UNL1        0.0647
     87 H           6.3301    5.8100    0.0000 H       1  UNL1        0.0938
     88 H          11.5263   -6.1900    0.0000 H       1  UNL1        0.0938
     89 H           5.1350    7.1200    0.0000 H       1  UNL1        0.0938
     90 H          13.4662   -7.3100    0.0000 H       1  UNL1        0.0671
     91 H           3.7320    7.3100    0.0000 H       1  UNL1        0.0671
     92 H          13.7953   -7.1200    0.0000 H       1  UNL1        0.0648
     93 H           8.5991   -7.8800    0.0000 H       1  UNL1        0.0937
     94 H           3.4030    7.1200    0.0000 H       1  UNL1        0.0648
     95 H           8.5991    7.8800    0.0000 H       1  UNL1        0.0937
     96 H          14.3322   -5.8100    0.0000 H       1  UNL1        0.0646
     97 H           3.4030    4.8800    0.0000 H       1  UNL1        0.0646
     98 H          12.3923   -4.6900    0.0000 H       1  UNL1        0.0621
     99 H           4.8059    4.6900    0.0000 H       1  UNL1        0.0621
    100 H           8.5991  -10.1200    0.0000 H       1  UNL1        0.0671
    101 H           8.5991   10.1200    0.0000 H       1  UNL1        0.0671
    102 H           7.1225   -4.8923    0.0000 H       1  UNL1        0.0584
    103 H           7.5210   -5.5826    0.0000 H       1  UNL1        0.0584
    104 H          10.0757    4.8923    0.0000 H       1  UNL1        0.0584
    105 H           9.6772    5.5826    0.0000 H       1  UNL1        0.0584
    106 H           7.1962  -10.3100    0.0000 H       1  UNL1        0.0647
    107 H          10.0021   10.3100    0.0000 H       1  UNL1        0.0647
    108 H           6.3301   -9.1900    0.0000 H       1  UNL1        0.0643
    109 H          10.8681    9.1900    0.0000 H       1  UNL1        0.0643
    110 H           7.1962   -6.6900    0.0000 H       1  UNL1        0.2100
    111 H          10.0021    6.6900    0.0000 H       1  UNL1        0.2100
    112 H           6.6550   -7.9174    0.0000 H       1  UNL1        0.0587
    113 H           6.2565   -8.6077    0.0000 H       1  UNL1        0.0587
    114 H          10.5432    7.9174    0.0000 H       1  UNL1        0.0587
    115 H          10.9417    8.6077    0.0000 H       1  UNL1        0.0587
    116 H          13.5492   -4.0000    0.0000 H       1  UNL1        0.0255
    117 H          12.9292   -3.3800    0.0000 H       1  UNL1        0.0255
    118 H          12.3092   -4.0000    0.0000 H       1  UNL1        0.0255
    119 H           3.6490    4.0000    0.0000 H       1  UNL1        0.0255
    120 H           4.2690    3.3800    0.0000 H       1  UNL1        0.0255
    121 H           4.8890    4.0000    0.0000 H       1  UNL1        0.0255
    122 H          11.8078   -4.1077    0.0000 H       1  UNL1        0.0608
    123 H          11.4092   -3.4174    0.0000 H       1  UNL1        0.0608
    124 H          13.4662   -8.3100    0.0000 H       1  UNL1        0.2101
    125 H           3.7320    8.3100    0.0000 H       1  UNL1        0.2101
    126 H           5.3905    4.1077    0.0000 H       1  UNL1        0.0605
    127 H           5.7890    3.4174    0.0000 H       1  UNL1        0.0605
    128 H          15.1982   -6.6900    0.0000 H       1  UNL1        0.2100
    129 H           2.0000    6.6900    0.0000 H       1  UNL1        0.2100
    130 H          14.6613   -4.3800    0.0000 H       1  UNL1        0.2100
    131 H           2.0000    5.3100    0.0000 H       1  UNL1        0.2100
    132 H           9.4651  -10.6200    0.0000 H       1  UNL1        0.2101
    133 H           7.7331   10.6200    0.0000 H       1  UNL1        0.2101
    134 H           7.1962   -3.6900    0.0000 H       1  UNL1        0.2095
    135 H          10.0021    3.6900    0.0000 H       1  UNL1        0.2095
    136 H           7.1962  -11.3100    0.0000 H       1  UNL1        0.2100
    137 H          10.0021   11.3100    0.0000 H       1  UNL1        0.2100
    138 H           5.4641   -9.6900    0.0000 H       1  UNL1        0.2100
    139 H          11.7341    9.6900    0.0000 H       1  UNL1        0.2100
    140 H           7.4040    3.8100    0.0000 H       1  UNL1        0.0594
    141 H          10.8681   -2.1900    0.0000 H       1  UNL1        0.0572
    142 H           9.1551   -3.4631    0.0000 H       1  UNL1        0.0275
    143 H           8.9282   -4.3100    0.0000 H       1  UNL1        0.0275
    144 H           9.7751   -4.5369    0.0000 H       1  UNL1        0.0275
    145 H           8.8546   -1.8923    0.0000 H       1  UNL1        0.0310
    146 H           9.2531   -2.5826    0.0000 H       1  UNL1        0.0310
    147 H           8.3437    1.8923    0.0000 H       1  UNL1        0.0313
    148 H           7.9451    2.5826    0.0000 H       1  UNL1        0.0313
    149 H          10.0757   -1.1077    0.0000 H       1  UNL1        0.0313
    150 H           9.6772   -0.4174    0.0000 H       1  UNL1        0.0313
    151 H           5.6910    2.5369    0.0000 H       1  UNL1        0.0274
    152 H           5.4641    1.6900    0.0000 H       1  UNL1        0.0274
    153 H           6.3110    1.4631    0.0000 H       1  UNL1        0.0274
    154 H           7.1225    1.1077    0.0000 H       1  UNL1        0.0310
    155 H           7.5210    0.4174    0.0000 H       1  UNL1        0.0310
    156 H           9.1360    0.8100    0.0000 H       1  UNL1        0.0572
    157 H           7.4231   -0.4631    0.0000 H       1  UNL1        0.0274
    158 H           7.1962   -1.3100    0.0000 H       1  UNL1        0.0274
    159 H           8.0431   -1.5369    0.0000 H       1  UNL1        0.0274
@<TRIPOS>BOND
     1    31     1    1
     2    39     1    1
     3    32     2    1
     4    40     2    1
     5     3    35    1
     6     3    36    1
     7    29     4    1
     8    44     4    1
     9     5    37    1
    10     5    38    1
    11    30     6    1
    12    46     6    1
    13     7    39    1
    14     7    49    1
    15     8    40    1
    16     8    50    1
    17    36     9    1
    18     9    63    1
    19    38    10    1
    20    10    64    1
    21    33    11    1
    22    11   110    1
    23    34    12    1
    24    12   111    1
    25    13    44    1
    26    13    59    1
    27    14    46    1
    28    14    60    1
    29    41    15    1
    30    15   124    1
    31    42    16    1
    32    16   125    1
    33    43    17    1
    34    17   128    1
    35    45    18    1
    36    18   129    1
    37    47    19    1
    38    19   130    1
    39    48    20    1
    40    20   131    1
    41    51    21    1
    42    21   132    1
    43    52    22    1
    44    22   133    1
    45    23    53    1
    46    23   134    1
    47    24    54    1
    48    24   135    1
    49    55    25    1
    50    25   136    1
    51    56    26    1
    52    26   137    1
    53    57    27    1
    54    27   138    1
    55    58    28    1
    56    28   139    1
    57    29    31    1
    58    29    33    1
    59    29    78    1
    60    30    32    1
    61    30    34    1
    62    30    79    1
    63    31    36    1
    64    31    80    1
    65    32    38    1
    66    32    81    1
    67    33    35    1
    68    33    82    1
    69    34    37    1
    70    34    83    1
    71    35    53    1
    72    35    84    1
    73    36    85    1
    74    37    54    1
    75    37    86    1
    76    38    87    1
    77    39    41    1
    78    39    88    1
    79    40    42    1
    80    40    89    1
    81    41    43    1
    82    41    90    1
    83    42    45    1
    84    42    91    1
    85    43    47    1
    86    43    92    1
    87    44    51    1
    88    44    93    1
    89    45    48    1
    90    45    94    1
    91    46    52    1
    92    46    95    1
    93    47    49    1
    94    47    96    1
    95    48    50    1
    96    48    97    1
    97    49    61    1
    98    49    98    1
    99    50    62    1
   100    50    99    1
   101    51    55    1
   102    51   100    1
   103    52    56    1
   104    52   101    1
   105    53   102    1
   106    53   103    1
   107    54   104    1
   108    54   105    1
   109    55    57    1
   110    55   106    1
   111    56    58    1
   112    56   107    1
   113    57    59    1
   114    57   108    1
   115    58    60    1
   116    58   109    1
   117    59   112    1
   118    59   113    1
   119    60   114    1
   120    60   115    1
   121    61   116    1
   122    61   117    1
   123    61   118    1
   124    62   119    1
   125    62   120    1
   126    62   121    1
   127    63    65    1
   128    63   122    1
   129    63   123    1
   130    64    66    1
   131    64   126    1
   132    64   127    1
   133    65    67    2
   134    65    69    1
   135    66    68    2
   136    66   140    1
   137    67    70    1
   138    67   141    1
   139    68    71    1
   140    68    73    1
   141    69   142    1
   142    69   143    1
   143    69   144    1
   144    70    72    1
   145    70   145    1
   146    70   146    1
   147    71    74    1
   148    71   147    1
   149    71   148    1
   150    72    75    1
   151    72   149    1
   152    72   150    1
   153    73   151    1
   154    73   152    1
   155    73   153    1
   156    74    76    1
   157    74   154    1
   158    74   155    1
   159    75    76    2
   160    75    77    1
   161    76   156    1
   162    77   157    1
   163    77   158    1
   164    77   159    1
