@<TRIPOS>MOLECULE
IMPHY005550
 74 78 0 0 0
SMALL
GASTEIGER

@<TRIPOS>ATOM
      1 O           6.8671   -1.7857    0.0000 O.3     1  UNL1       -0.3366
      2 O           5.1350    0.2143    0.0000 O.3     1  UNL1       -0.3313
      3 O           6.0010   -3.2857    0.0000 O.3     1  UNL1       -0.3405
      4 O           6.8671    0.2143    0.0000 O.3     1  UNL1       -0.4532
      5 O           5.1350   -2.7857    0.0000 O.3     1  UNL1       -0.3863
      6 O           3.4030   -1.7857    0.0000 O.3     1  UNL1       -0.3865
      7 O           8.5991   -2.7857    0.0000 O.3     1  UNL1       -0.3841
      8 O           8.5991   -4.7857    0.0000 O.3     1  UNL1       -0.3864
      9 O           6.8671   -5.7857    0.0000 O.3     1  UNL1       -0.3865
     10 O           2.5369   -0.2857    0.0000 O.3     1  UNL1       -0.3924
     11 O           4.2690   -4.2857    0.0000 O.3     1  UNL1       -0.3924
     12 O           7.7331    2.7143    0.0000 O.2     1  UNL1       -0.4507
     13 O           5.1350    1.2143    0.0000 O.2     1  UNL1       -0.2830
     14 O           4.2308    2.7112    0.0000 O.3     1  UNL1       -0.5058
     15 O           5.9889    5.7836    0.0000 O.3     1  UNL1       -0.5065
     16 O          11.1972    1.7143    0.0000 O.3     1  UNL1       -0.5033
     17 O          11.1972   -0.2857    0.0000 O.3     1  UNL1       -0.5033
     18 C           6.0010   -1.2857    0.0000 C.3     1  UNL1        0.1519
     19 C           5.1350   -1.7857    0.0000 C.3     1  UNL1        0.1155
     20 C           4.2690   -1.2857    0.0000 C.3     1  UNL1        0.1120
     21 C           6.8671   -2.7857    0.0000 C.3     1  UNL1        0.1886
     22 C           7.7331   -3.2857    0.0000 C.3     1  UNL1        0.1341
     23 C           6.0010   -0.2857    0.0000 C.3     1  UNL1        0.2315
     24 C           4.2690   -0.2857    0.0000 C.3     1  UNL1        0.1140
     25 C           7.7331   -4.2857    0.0000 C.3     1  UNL1        0.1141
     26 C           6.8671   -4.7857    0.0000 C.3     1  UNL1        0.1119
     27 C           6.0010   -4.2857    0.0000 C.3     1  UNL1        0.1130
     28 C           3.4030    0.2143    0.0000 C.3     1  UNL1        0.0731
     29 C           5.1350   -4.7857    0.0000 C.3     1  UNL1        0.0730
     30 C           6.8671    1.2143    0.0000 C.ar    1  UNL1        0.2138
     31 C           7.7331    1.7143    0.0000 C.ar    1  UNL1        0.1810
     32 C           6.0010    1.7143    0.0000 C.ar    1  UNL1        0.2382
     33 C           6.0010    2.7143    0.0000 C.ar    1  UNL1        0.1092
     34 C           8.5991    1.2143    0.0000 C.ar    1  UNL1        0.0247
     35 C           6.8671    3.2143    0.0000 C.ar    1  UNL1        0.1465
     36 C           5.0910    3.2212    0.0000 C.ar    1  UNL1        0.1348
     37 C           6.8831    4.2558    0.0000 C.ar    1  UNL1        0.0231
     38 C           9.4651    1.7143    0.0000 C.ar    1  UNL1       -0.0057
     39 C           8.5991    0.2143    0.0000 C.ar    1  UNL1       -0.0473
     40 C           5.0830    4.2628    0.0000 C.ar    1  UNL1        0.0223
     41 C           5.9851    4.7836    0.0000 C.ar    1  UNL1        0.1239
     42 C          10.3312    1.2143    0.0000 C.ar    1  UNL1        0.1589
     43 C           9.4651   -0.2857    0.0000 C.ar    1  UNL1       -0.0159
     44 C          10.3312    0.2143    0.0000 C.ar    1  UNL1        0.1583
     45 H           6.0010   -1.9057    0.0000 H       1  UNL1        0.0687
     46 H           4.5981   -2.0957    0.0000 H       1  UNL1        0.0648
     47 H           4.2690   -1.9057    0.0000 H       1  UNL1        0.0647
     48 H           7.4040   -2.4757    0.0000 H       1  UNL1        0.0938
     49 H           8.2700   -3.5957    0.0000 H       1  UNL1        0.0671
     50 H           6.0010    0.3343    0.0000 H       1  UNL1        0.1084
     51 H           4.2690    0.3343    0.0000 H       1  UNL1        0.0647
     52 H           7.7331   -4.9057    0.0000 H       1  UNL1        0.0648
     53 H           7.4040   -5.0957    0.0000 H       1  UNL1        0.0647
     54 H           5.4641   -3.9757    0.0000 H       1  UNL1        0.0647
     55 H           3.8015    0.6893    0.0000 H       1  UNL1        0.0584
     56 H           3.0044    0.6893    0.0000 H       1  UNL1        0.0584
     57 H           4.7365   -5.2606    0.0000 H       1  UNL1        0.0584
     58 H           5.5335   -5.2606    0.0000 H       1  UNL1        0.0584
     59 H           4.5981   -3.0957    0.0000 H       1  UNL1        0.2100
     60 H           3.4030   -2.4057    0.0000 H       1  UNL1        0.2100
     61 H           9.1360   -3.0957    0.0000 H       1  UNL1        0.2101
     62 H           8.5991   -5.4057    0.0000 H       1  UNL1        0.2100
     63 H           6.3301   -6.0957    0.0000 H       1  UNL1        0.2100
     64 H           2.0000    0.0243    0.0000 H       1  UNL1        0.2095
     65 H           3.7320   -4.5957    0.0000 H       1  UNL1        0.2095
     66 H           7.4236    4.5596    0.0000 H       1  UNL1        0.0691
     67 H           9.4651    2.3343    0.0000 H       1  UNL1        0.0662
     68 H           8.0622   -0.0957    0.0000 H       1  UNL1        0.0626
     69 H           4.5449    4.5707    0.0000 H       1  UNL1        0.0691
     70 H           9.4651   -0.9057    0.0000 H       1  UNL1        0.0655
     71 H           3.6904    3.0150    0.0000 H       1  UNL1        0.2922
     72 H           5.4532    6.0957    0.0000 H       1  UNL1        0.2921
     73 H          11.1972    2.3343    0.0000 H       1  UNL1        0.2923
     74 H          11.1972   -0.9057    0.0000 H       1  UNL1        0.2923
@<TRIPOS>BOND
     1    18     1    1
     2    21     1    1
     3     2    23    1
     4     2    24    1
     5     3    21    1
     6     3    27    1
     7    23     4    1
     8     4    30    1
     9    19     5    1
    10     5    59    1
    11    20     6    1
    12     6    60    1
    13    22     7    1
    14     7    61    1
    15    25     8    1
    16     8    62    1
    17    26     9    1
    18     9    63    1
    19    10    28    1
    20    10    64    1
    21    11    29    1
    22    11    65    1
    23    12    31   ar
    24    12    35   ar
    25    13    32    2
    26    14    36    1
    27    14    71    1
    28    15    41    1
    29    15    72    1
    30    16    42    1
    31    16    73    1
    32    17    44    1
    33    17    74    1
    34    18    19    1
    35    18    23    1
    36    18    45    1
    37    19    20    1
    38    19    46    1
    39    20    24    1
    40    20    47    1
    41    21    22    1
    42    21    48    1
    43    22    25    1
    44    22    49    1
    45    23    50    1
    46    24    28    1
    47    24    51    1
    48    25    26    1
    49    25    52    1
    50    26    27    1
    51    26    53    1
    52    27    29    1
    53    27    54    1
    54    28    55    1
    55    28    56    1
    56    29    57    1
    57    29    58    1
    58    30    31   ar
    59    30    32   ar
    60    31    34    1
    61    32    33   ar
    62    33    35   ar
    63    33    36   ar
    64    34    38   ar
    65    34    39   ar
    66    35    37   ar
    67    36    40   ar
    68    37    41   ar
    69    37    66    1
    70    38    42   ar
    71    38    67    1
    72    39    43   ar
    73    39    68    1
    74    40    41   ar
    75    40    69    1
    76    42    44   ar
    77    43    44   ar
    78    43    70    1
