@<TRIPOS>MOLECULE
IMPHY009410
 17 17 0 0 0
SMALL
GASTEIGER

@<TRIPOS>ATOM
      1 O           3.7320    2.0950    0.0000 O.3     1  UNL1       -0.3904
      2 O           2.8660   -2.4050    0.0000 O.3     1  UNL1       -0.5068
      3 C           2.8660    0.5950    0.0000 C.ar    1  UNL1       -0.0220
      4 C           3.7320    0.0950    0.0000 C.ar    1  UNL1       -0.0530
      5 C           2.0000    0.0950    0.0000 C.ar    1  UNL1       -0.0530
      6 C           2.8660    1.5950    0.0000 C.3     1  UNL1        0.0692
      7 C           3.7320   -0.9050    0.0000 C.ar    1  UNL1       -0.0199
      8 C           2.0000   -0.9050    0.0000 C.ar    1  UNL1       -0.0199
      9 C           2.8660   -1.4050    0.0000 C.ar    1  UNL1        0.1169
     10 H           4.2690    0.4050    0.0000 H       1  UNL1        0.0622
     11 H           1.4631    0.4050    0.0000 H       1  UNL1        0.0622
     12 H           2.6540    2.1776    0.0000 H       1  UNL1        0.0607
     13 H           2.2554    1.4873    0.0000 H       1  UNL1        0.0607
     14 H           4.2690   -1.2150    0.0000 H       1  UNL1        0.0654
     15 H           1.4631   -1.2150    0.0000 H       1  UNL1        0.0654
     16 H           3.7320    2.7150    0.0000 H       1  UNL1        0.2098
     17 H           2.3291   -2.7150    0.0000 H       1  UNL1        0.2921
@<TRIPOS>BOND
     1     1     6    1
     2     1    16    1
     3     2     9    1
     4     2    17    1
     5     3     4   ar
     6     3     5   ar
     7     3     6    1
     8     4     7   ar
     9     4    10    1
    10     5     8   ar
    11     5    11    1
    12     6    12    1
    13     6    13    1
    14     7     9   ar
    15     7    14    1
    16     8     9   ar
    17     8    15    1
