@<TRIPOS>MOLECULE
IMPHY002413
 81 86 0 0 0
SMALL
GASTEIGER

@<TRIPOS>ATOM
      1 O          10.9848    2.5364    0.0000 O.3     1  UNL1       -0.3912
      2 C           6.5109   -1.1080    0.0000 C.3     1  UNL1       -0.0171
      3 C           5.6449   -0.6080    0.0000 C.3     1  UNL1       -0.0190
      4 C           5.6447   -1.6084    0.0000 C.3     1  UNL1       -0.0399
      5 C           7.3770   -0.6080    0.0000 C.3     1  UNL1       -0.0225
      6 C           4.7349   -1.1148    0.0000 C.3     1  UNL1       -0.0266
      7 C           7.3770    0.3920    0.0000 C.3     1  UNL1       -0.0294
      8 C           5.6449    0.3920    0.0000 C.3     1  UNL1       -0.0463
      9 C           6.5270   -2.1495    0.0000 C.3     1  UNL1       -0.0458
     10 C           4.7269   -2.1564    0.0000 C.3     1  UNL1       -0.0284
     11 C           6.5109    0.8920    0.0000 C.3     1  UNL1       -0.0487
     12 C           8.2709    0.9267    0.0000 C.3     1  UNL1       -0.0252
     13 C           5.6290   -2.6772    0.0000 C.3     1  UNL1       -0.0468
     14 C           8.2709   -1.1426    0.0000 C.3     1  UNL1       -0.0465
     15 C           3.8081   -0.5507    0.0000 C.3     1  UNL1       -0.0374
     16 C           9.1770    0.4128    0.0000 C.3     1  UNL1       -0.0278
     17 C           7.3770   -1.6080    0.0000 C.3     1  UNL1       -0.0588
     18 C           9.1770   -0.6288    0.0000 C.3     1  UNL1       -0.0486
     19 C           3.7914   -2.7062    0.0000 C.3     1  UNL1       -0.0471
     20 C           2.8602   -1.0787    0.0000 C.3     1  UNL1       -0.0410
     21 C           8.2458    2.0114    0.0000 C.3     1  UNL1       -0.0447
     22 C           4.7192   -3.1564    0.0000 C.3     1  UNL1       -0.0593
     23 C          10.1208    0.9481    0.0000 C.3     1  UNL1       -0.0056
     24 C           2.8518   -2.1636    0.0000 C.3     1  UNL1       -0.0497
     25 C           7.4010    1.4200    0.0000 C.3     1  UNL1       -0.0590
     26 C           3.8273    0.4491    0.0000 C.3     1  UNL1       -0.0619
     27 C           9.1770    2.5683    0.0000 C.3     1  UNL1       -0.0258
     28 C          10.1208    2.0331    0.0000 C.3     1  UNL1        0.0606
     29 C           2.0000   -0.5687    0.0000 C.3     1  UNL1       -0.0622
     30 C          11.1207    0.9442    0.0000 C.3     1  UNL1       -0.0572
     31 C          10.6174    0.0801    0.0000 C.3     1  UNL1       -0.0572
     32 H           5.0341   -1.7160    0.0000 H       1  UNL1        0.0277
     33 H           5.8568   -2.1910    0.0000 H       1  UNL1        0.0277
     34 H           4.7513   -0.2650    0.0000 H       1  UNL1        0.0314
     35 H           8.1163   -0.0273    0.0000 H       1  UNL1        0.0312
     36 H           5.4329    0.9746    0.0000 H       1  UNL1        0.0271
     37 H           5.0343    0.2844    0.0000 H       1  UNL1        0.0271
     38 H           6.7450   -2.7299    0.0000 H       1  UNL1        0.0271
     39 H           7.1361   -2.0340    0.0000 H       1  UNL1        0.0271
     40 H           6.9095    1.3670    0.0000 H       1  UNL1        0.0268
     41 H           6.1124    1.3670    0.0000 H       1  UNL1        0.0268
     42 H           5.2316   -3.1532    0.0000 H       1  UNL1        0.0271
     43 H           6.0299   -3.1501    0.0000 H       1  UNL1        0.0271
     44 H           7.8663   -1.6124    0.0000 H       1  UNL1        0.0271
     45 H           8.6645   -1.6217    0.0000 H       1  UNL1        0.0271
     46 H           4.3515   -0.2522    0.0000 H       1  UNL1        0.0304
     47 H           9.9114   -0.0150    0.0000 H       1  UNL1        0.0312
     48 H           6.7570   -1.6080    0.0000 H       1  UNL1        0.0235
     49 H           7.3770   -2.2280    0.0000 H       1  UNL1        0.0235
     50 H           7.9970   -1.6080    0.0000 H       1  UNL1        0.0235
     51 H           9.3860   -1.2125    0.0000 H       1  UNL1        0.0268
     52 H           9.7878   -0.5227    0.0000 H       1  UNL1        0.0268
     53 H           3.3942   -3.1821    0.0000 H       1  UNL1        0.0271
     54 H           4.1924   -3.1790    0.0000 H       1  UNL1        0.0271
     55 H           2.3203   -1.3835    0.0000 H       1  UNL1        0.0301
     56 H           8.0233    2.5901    0.0000 H       1  UNL1        0.0271
     57 H           7.6376    1.8912    0.0000 H       1  UNL1        0.0271
     58 H           4.0992   -3.1516    0.0000 H       1  UNL1        0.0235
     59 H           4.7144   -3.7764    0.0000 H       1  UNL1        0.0235
     60 H           5.3392   -3.1612    0.0000 H       1  UNL1        0.0235
     61 H           2.2418   -2.0529    0.0000 H       1  UNL1        0.0268
     62 H           2.6383   -2.7457    0.0000 H       1  UNL1        0.0268
     63 H           7.7069    1.9593    0.0000 H       1  UNL1        0.0235
     64 H           6.8617    1.7258    0.0000 H       1  UNL1        0.0235
     65 H           7.0952    0.8807    0.0000 H       1  UNL1        0.0235
     66 H           4.4472    0.4371    0.0000 H       1  UNL1        0.0233
     67 H           3.8393    1.0690    0.0000 H       1  UNL1        0.0233
     68 H           3.2075    0.4610    0.0000 H       1  UNL1        0.0233
     69 H           9.5706    3.0473    0.0000 H       1  UNL1        0.0290
     70 H           8.7724    3.0381    0.0000 H       1  UNL1        0.0290
     71 H          10.6583    1.7241    0.0000 H       1  UNL1        0.0599
     72 H           2.3162   -0.0354    0.0000 H       1  UNL1        0.0233
     73 H           1.4667   -0.2525    0.0000 H       1  UNL1        0.0233
     74 H           1.6838   -1.1020    0.0000 H       1  UNL1        0.0233
     75 H          10.0793   -0.2278    0.0000 H       1  UNL1        0.0236
     76 H          10.9253   -0.4580    0.0000 H       1  UNL1        0.0236
     77 H          11.1184    0.3242    0.0000 H       1  UNL1        0.0236
     78 H          11.7407    0.9418    0.0000 H       1  UNL1        0.0236
     79 H          11.1231    1.5642    0.0000 H       1  UNL1        0.0236
     80 H          11.1555    0.3881    0.0000 H       1  UNL1        0.0236
     81 H          10.9825    3.1564    0.0000 H       1  UNL1        0.2098
@<TRIPOS>BOND
     1    28     1    1
     2     1    81    1
     3     2     3    1
     4     2     4    1
     5     2     5    1
     6     2     9    1
     7     3     4    1
     8     3     6    1
     9     3     8    1
    10     4    32    1
    11     4    33    1
    12     5     7    1
    13     5    14    1
    14     5    17    1
    15     6    10    1
    16     6    15    1
    17     6    34    1
    18     7    11    1
    19     7    12    1
    20     7    35    1
    21     8    11    1
    22     8    36    1
    23     8    37    1
    24     9    13    1
    25     9    38    1
    26     9    39    1
    27    10    13    1
    28    10    19    1
    29    10    22    1
    30    11    40    1
    31    11    41    1
    32    12    16    1
    33    12    21    1
    34    12    25    1
    35    13    42    1
    36    13    43    1
    37    14    18    1
    38    14    44    1
    39    14    45    1
    40    15    20    1
    41    15    26    1
    42    15    46    1
    43    16    18    1
    44    16    23    1
    45    16    47    1
    46    17    48    1
    47    17    49    1
    48    17    50    1
    49    18    51    1
    50    18    52    1
    51    19    24    1
    52    19    53    1
    53    19    54    1
    54    20    24    1
    55    20    29    1
    56    20    55    1
    57    21    27    1
    58    21    56    1
    59    21    57    1
    60    22    58    1
    61    22    59    1
    62    22    60    1
    63    23    28    1
    64    23    30    1
    65    23    31    1
    66    24    61    1
    67    24    62    1
    68    25    63    1
    69    25    64    1
    70    25    65    1
    71    26    66    1
    72    26    67    1
    73    26    68    1
    74    27    28    1
    75    27    69    1
    76    27    70    1
    77    28    71    1
    78    29    72    1
    79    29    73    1
    80    29    74    1
    81    30    77    1
    82    30    78    1
    83    30    79    1
    84    31    75    1
    85    31    76    1
    86    31    80    1
