@<TRIPOS>MOLECULE
IMPHY017588
 40 41 0 0 0
SMALL
GASTEIGER

@<TRIPOS>ATOM
      1 O           8.1282    1.5241    0.0000 O.2     1  UNL1       -0.2974
      2 C           5.4641   -0.0000    0.0000 C.3     1  UNL1       -0.0253
      3 C           5.4641    1.0000    0.0000 C.3     1  UNL1       -0.0287
      4 C           6.3580   -0.5347    0.0000 C.3     1  UNL1       -0.0315
      5 C           4.5981   -0.5000    0.0000 C.3     1  UNL1       -0.0406
      6 C           4.5981    1.5000    0.0000 C.3     1  UNL1       -0.0488
      7 C           3.7320   -0.0000    0.0000 C.3     1  UNL1       -0.0199
      8 C           6.3580    1.5346    0.0000 C.3     1  UNL1        0.0092
      9 C           3.7320    1.0000    0.0000 C.3     1  UNL1       -0.0462
     10 C           7.2641   -0.0208    0.0000 C.3     1  UNL1        0.0089
     11 C           5.4641   -1.0000    0.0000 C.3     1  UNL1       -0.0590
     12 C           7.2641    1.0208    0.0000 C.2     1  UNL1        0.1339
     13 C           6.3465   -1.5346    0.0000 C.3     1  UNL1       -0.0615
     14 C           2.8660   -0.5000    0.0000 C.2     1  UNL1       -0.0766
     15 C           2.0000   -0.0000    0.0000 C.3     1  UNL1       -0.0438
     16 C           2.8660   -1.5000    0.0000 C.2     1  UNL1       -0.0994
     17 H           5.4593    1.6200    0.0000 H       1  UNL1        0.0310
     18 H           6.8920   -0.8499    0.0000 H       1  UNL1        0.0307
     19 H           4.1996   -0.9750    0.0000 H       1  UNL1        0.0276
     20 H           4.9966   -0.9750    0.0000 H       1  UNL1        0.0276
     21 H           4.9966    1.9749    0.0000 H       1  UNL1        0.0268
     22 H           4.1996    1.9749    0.0000 H       1  UNL1        0.0268
     23 H           3.7320   -0.6200    0.0000 H       1  UNL1        0.0346
     24 H           6.7517    2.0136    0.0000 H       1  UNL1        0.0344
     25 H           5.9534    2.0044    0.0000 H       1  UNL1        0.0344
     26 H           3.5200    1.5826    0.0000 H       1  UNL1        0.0271
     27 H           3.1215    0.8923    0.0000 H       1  UNL1        0.0271
     28 H           7.4732   -0.6045    0.0000 H       1  UNL1        0.0344
     29 H           7.8750    0.0852    0.0000 H       1  UNL1        0.0344
     30 H           4.8441   -1.0000    0.0000 H       1  UNL1        0.0235
     31 H           5.4641   -1.6200    0.0000 H       1  UNL1        0.0235
     32 H           6.0841   -1.0000    0.0000 H       1  UNL1        0.0235
     33 H           5.7265   -1.5275    0.0000 H       1  UNL1        0.0233
     34 H           6.3393   -2.1546    0.0000 H       1  UNL1        0.0233
     35 H           6.9664   -1.5418    0.0000 H       1  UNL1        0.0233
     36 H           2.3100    0.5369    0.0000 H       1  UNL1        0.0274
     37 H           1.4631    0.3100    0.0000 H       1  UNL1        0.0274
     38 H           1.6900   -0.5370    0.0000 H       1  UNL1        0.0274
     39 H           2.3291   -1.8100    0.0000 H       1  UNL1        0.0534
     40 H           3.4030   -1.8100    0.0000 H       1  UNL1        0.0534
@<TRIPOS>BOND
     1     1    12    2
     2     2     3    1
     3     2     4    1
     4     2     5    1
     5     2    11    1
     6     3     6    1
     7     3     8    1
     8     3    17    1
     9     4    10    1
    10     4    13    1
    11     4    18    1
    12     5     7    1
    13     5    19    1
    14     5    20    1
    15     6     9    1
    16     6    21    1
    17     6    22    1
    18     7     9    1
    19     7    14    1
    20     7    23    1
    21     8    12    1
    22     8    24    1
    23     8    25    1
    24     9    26    1
    25     9    27    1
    26    10    12    1
    27    10    28    1
    28    10    29    1
    29    11    30    1
    30    11    31    1
    31    11    32    1
    32    13    33    1
    33    13    34    1
    34    13    35    1
    35    14    15    1
    36    14    16    2
    37    15    36    1
    38    15    37    1
    39    15    38    1
    40    16    39    1
    41    16    40    1
