@<TRIPOS>MOLECULE
IMPHY001818
 29 29 0 0 0
SMALL
GASTEIGER

@<TRIPOS>ATOM
      1 O           5.2812   -1.1146    0.0000 O.3     1  UNL1       -0.3912
      2 C           5.0916    0.5682    0.0000 C.3     1  UNL1       -0.0055
      3 C           4.6577   -0.3327    0.0000 C.3     1  UNL1        0.0609
      4 C           4.6577    1.4692    0.0000 C.3     1  UNL1       -0.0270
      5 C           3.6828   -0.5553    0.0000 C.3     1  UNL1       -0.0227
      6 C           2.9010    0.0682    0.0000 C.3     1  UNL1       -0.0297
      7 C           5.9926    0.1343    0.0000 C.3     1  UNL1       -0.0572
      8 C           5.9926    1.0021    0.0000 C.3     1  UNL1       -0.0572
      9 C           3.6828    1.6917    0.0000 C.2     1  UNL1       -0.0844
     10 C           2.9010    1.0682    0.0000 C.2     1  UNL1       -0.0764
     11 C           2.0000    1.5021    0.0000 C.3     1  UNL1       -0.0438
     12 H           5.5024   -0.2376    0.0000 H       1  UNL1        0.0599
     13 H           5.2622    1.6072    0.0000 H       1  UNL1        0.0313
     14 H           4.6577    2.0892    0.0000 H       1  UNL1        0.0313
     15 H           3.1981   -0.9418    0.0000 H       1  UNL1        0.0293
     16 H           3.9518   -1.1139    0.0000 H       1  UNL1        0.0293
     17 H           2.2965    0.2062    0.0000 H       1  UNL1        0.0311
     18 H           2.6320   -0.4904    0.0000 H       1  UNL1        0.0311
     19 H           5.7236   -0.4243    0.0000 H       1  UNL1        0.0236
     20 H           6.5512   -0.1347    0.0000 H       1  UNL1        0.0236
     21 H           6.2616    0.6929    0.0000 H       1  UNL1        0.0236
     22 H           6.2616    0.4435    0.0000 H       1  UNL1        0.0236
     23 H           6.5512    1.2711    0.0000 H       1  UNL1        0.0236
     24 H           5.7236    1.5607    0.0000 H       1  UNL1        0.0236
     25 H           3.5448    2.2962    0.0000 H       1  UNL1        0.0572
     26 H           5.0547   -1.6917    0.0000 H       1  UNL1        0.2098
     27 H           2.2690    2.0607    0.0000 H       1  UNL1        0.0274
     28 H           1.4414    1.7711    0.0000 H       1  UNL1        0.0274
     29 H           1.7310    0.9435    0.0000 H       1  UNL1        0.0274
@<TRIPOS>BOND
     1     1     3    1
     2     1    26    1
     3     2     3    1
     4     2     4    1
     5     2     7    1
     6     2     8    1
     7     3     5    1
     8     3    12    1
     9     4     9    1
    10     4    13    1
    11     4    14    1
    12     5     6    1
    13     5    15    1
    14     5    16    1
    15     6    10    1
    16     6    17    1
    17     6    18    1
    18     7    19    1
    19     7    20    1
    20     7    21    1
    21     8    22    1
    22     8    23    1
    23     8    24    1
    24     9    10    2
    25     9    25    1
    26    10    11    1
    27    11    27    1
    28    11    28    1
    29    11    29    1
