@<TRIPOS>MOLECULE
IMPHY014256
 26 25 0 0 0
SMALL
GASTEIGER

@<TRIPOS>ATOM
      1 O           2.5369    1.0600    0.0000 O.3     1  UNL1       -0.4804
      2 O           6.8671    1.5600    0.0000 O.3     1  UNL1       -0.4804
      3 O           3.4030    2.5600    0.0000 O.2     1  UNL1       -0.2507
      4 O           6.0010    0.0600    0.0000 O.2     1  UNL1       -0.2507
      5 O           2.5369   -1.9400    0.0000 O.3     1  UNL1       -0.4806
      6 O           4.2690   -1.9400    0.0000 O.2     1  UNL1       -0.2510
      7 C           4.2690    1.0600    0.0000 C.3     1  UNL1        0.0694
      8 C           5.1350    1.5600    0.0000 C.3     1  UNL1        0.0663
      9 C           4.2690    0.0600    0.0000 C.3     1  UNL1       -0.0293
     10 C           3.4030   -0.4400    0.0000 C.3     1  UNL1        0.0455
     11 C           5.1350    2.5600    0.0000 C.3     1  UNL1       -0.0515
     12 C           3.4030    1.5600    0.0000 C.2     1  UNL1        0.3086
     13 C           6.0010    1.0600    0.0000 C.2     1  UNL1        0.3083
     14 C           3.4030   -1.4400    0.0000 C.2     1  UNL1        0.3047
     15 H           4.2690    1.6800    0.0000 H       1  UNL1        0.0421
     16 H           5.6720    1.8700    0.0000 H       1  UNL1        0.0419
     17 H           4.4810   -0.5226    0.0000 H       1  UNL1        0.0278
     18 H           4.8796    0.1677    0.0000 H       1  UNL1        0.0278
     19 H           3.1909    0.1426    0.0000 H       1  UNL1        0.0378
     20 H           2.7924   -0.5477    0.0000 H       1  UNL1        0.0378
     21 H           5.7550    2.5600    0.0000 H       1  UNL1        0.0238
     22 H           5.1350    3.1800    0.0000 H       1  UNL1        0.0238
     23 H           4.5150    2.5600    0.0000 H       1  UNL1        0.0238
     24 H           2.0000    1.3700    0.0000 H       1  UNL1        0.2951
     25 H           7.4040    1.2500    0.0000 H       1  UNL1        0.2951
     26 H           2.5369   -2.5600    0.0000 H       1  UNL1        0.2951
@<TRIPOS>BOND
     1     1    12    1
     2     1    24    1
     3     2    13    1
     4     2    25    1
     5     3    12    2
     6     4    13    2
     7     5    14    1
     8     5    26    1
     9     6    14    2
    10     7     8    1
    11     7     9    1
    12     7    12    1
    13     7    15    1
    14     8    11    1
    15     8    13    1
    16     8    16    1
    17     9    10    1
    18     9    17    1
    19     9    18    1
    20    10    14    1
    21    10    19    1
    22    10    20    1
    23    11    21    1
    24    11    22    1
    25    11    23    1
