@<TRIPOS>MOLECULE
IMPHY002100
 84 88 0 0 0
SMALL
GASTEIGER

@<TRIPOS>ATOM
      1 O           5.2710   -2.8825    0.0000 O.3     1  UNL1       -0.3848
      2 O           6.6842   -3.2674    0.0000 O.3     1  UNL1       -0.3889
      3 O           2.5357   -2.3864    0.0000 O.3     1  UNL1       -0.3911
      4 O           2.8467   -3.3040    0.0000 O.3     1  UNL1       -0.3943
      5 O          11.4608    0.7001    0.0000 O.3     1  UNL1       -0.4802
      6 O          10.6064   -0.8065    0.0000 O.2     1  UNL1       -0.2504
      7 C           7.0628   -0.8341    0.0000 C.3     1  UNL1       -0.0169
      8 C           5.2868   -0.8409    0.0000 C.3     1  UNL1        0.0035
      9 C           6.1968   -0.3341    0.0000 C.3     1  UNL1       -0.0232
     10 C           7.9288   -0.3341    0.0000 C.3     1  UNL1       -0.0050
     11 C           5.2787   -1.8825    0.0000 C.3     1  UNL1        0.1071
     12 C           7.0789   -1.8756    0.0000 C.3     1  UNL1       -0.0176
     13 C           6.1808   -2.4033    0.0000 C.3     1  UNL1        0.0856
     14 C           4.3433   -2.4322    0.0000 C.3     1  UNL1        0.0485
     15 C           7.9288    0.6659    0.0000 C.2     1  UNL1       -0.0626
     16 C           8.8228    1.2006    0.0000 C.3     1  UNL1       -0.0008
     17 C           4.3599   -0.2768    0.0000 C.3     1  UNL1       -0.0423
     18 C           6.1968    0.6659    0.0000 C.3     1  UNL1       -0.0305
     19 C           8.8228   -0.8687    0.0000 C.3     1  UNL1       -0.0424
     20 C           9.7288    0.6868    0.0000 C.3     1  UNL1        0.0743
     21 C           7.7056   -1.6001    0.0000 C.3     1  UNL1       -0.0584
     22 C           3.4037   -1.8897    0.0000 C.3     1  UNL1        0.0654
     23 C           9.7288   -0.3549    0.0000 C.3     1  UNL1       -0.0359
     24 C           5.2945    0.1591    0.0000 C.3     1  UNL1       -0.0566
     25 C           7.0628    1.1659    0.0000 C.2     1  UNL1       -0.0836
     26 C           3.4120   -0.8048    0.0000 C.3     1  UNL1       -0.0256
     27 C           8.2709   -1.2737    0.0000 C.3     1  UNL1       -0.0553
     28 C           8.7977    2.2853    0.0000 C.3     1  UNL1       -0.0337
     29 C          10.6726    1.2220    0.0000 C.3     1  UNL1       -0.0364
     30 C           3.8467   -3.3002    0.0000 C.3     1  UNL1        0.0547
     31 C           4.5208   -3.4164    0.0000 C.3     1  UNL1       -0.0523
     32 C           9.7288    2.8422    0.0000 C.3     1  UNL1       -0.0407
     33 C          10.6726    2.3070    0.0000 C.3     1  UNL1       -0.0492
     34 C          10.5987    0.1934    0.0000 C.2     1  UNL1        0.3115
     35 C           7.9222    2.7685    0.0000 C.3     1  UNL1       -0.0616
     36 C           9.7173    3.8422    0.0000 C.3     1  UNL1       -0.0622
     37 H           6.7337   -0.0241    0.0000 H       1  UNL1        0.0315
     38 H           7.2969   -2.4560    0.0000 H       1  UNL1        0.0297
     39 H           7.6880   -1.7601    0.0000 H       1  UNL1        0.0297
     40 H           5.7433   -2.8426    0.0000 H       1  UNL1        0.0622
     41 H           8.2800    1.5002    0.0000 H       1  UNL1        0.0359
     42 H           4.7681    0.1898    0.0000 H       1  UNL1        0.0272
     43 H           3.9700    0.2052    0.0000 H       1  UNL1        0.0272
     44 H           5.9847    1.2486    0.0000 H       1  UNL1        0.0310
     45 H           5.5862    0.5583    0.0000 H       1  UNL1        0.0310
     46 H           8.4182   -1.3385    0.0000 H       1  UNL1        0.0274
     47 H           9.2164   -1.3477    0.0000 H       1  UNL1        0.0274
     48 H           7.2306   -1.9986    0.0000 H       1  UNL1        0.0235
     49 H           8.1041   -2.0750    0.0000 H       1  UNL1        0.0235
     50 H           8.1805   -1.2016    0.0000 H       1  UNL1        0.0235
     51 H           3.4025   -2.5097    0.0000 H       1  UNL1        0.0600
     52 H           9.9379   -0.9386    0.0000 H       1  UNL1        0.0276
     53 H          10.3397   -0.2488    0.0000 H       1  UNL1        0.0276
     54 H           5.9145    0.1543    0.0000 H       1  UNL1        0.0236
     55 H           5.2993    0.7790    0.0000 H       1  UNL1        0.0236
     56 H           4.6745    0.1638    0.0000 H       1  UNL1        0.0236
     57 H           7.0628    1.7859    0.0000 H       1  UNL1        0.0572
     58 H           3.2075   -0.2195    0.0000 H       1  UNL1        0.0290
     59 H           2.8004   -0.9062    0.0000 H       1  UNL1        0.0290
     60 H           7.6884   -1.4858    0.0000 H       1  UNL1        0.0238
     61 H           8.4830   -1.8563    0.0000 H       1  UNL1        0.0238
     62 H           8.8535   -1.0616    0.0000 H       1  UNL1        0.0238
     63 H           8.2674    1.9640    0.0000 H       1  UNL1        0.0307
     64 H          10.8817    0.6383    0.0000 H       1  UNL1        0.0276
     65 H          11.2835    1.3281    0.0000 H       1  UNL1        0.0276
     66 H           3.7414   -3.9112    0.0000 H       1  UNL1        0.0564
     67 H           4.4301   -3.5100    0.0000 H       1  UNL1        0.0564
     68 H           3.9106   -3.5264    0.0000 H       1  UNL1        0.0238
     69 H           4.6308   -4.0265    0.0000 H       1  UNL1        0.0238
     70 H           5.1309   -3.3064    0.0000 H       1  UNL1        0.0238
     71 H          10.2628    3.1574    0.0000 H       1  UNL1        0.0301
     72 H           5.5769   -3.4218    0.0000 H       1  UNL1        0.2103
     73 H          11.2835    2.2009    0.0000 H       1  UNL1        0.0268
     74 H          10.8817    2.8907    0.0000 H       1  UNL1        0.0268
     75 H           7.3042   -3.2650    0.0000 H       1  UNL1        0.2099
     76 H           8.2218    3.3113    0.0000 H       1  UNL1        0.0233
     77 H           7.3794    3.0681    0.0000 H       1  UNL1        0.0233
     78 H           7.6226    2.2257    0.0000 H       1  UNL1        0.0233
     79 H           2.0000   -2.0743    0.0000 H       1  UNL1        0.2098
     80 H          10.3372    3.8493    0.0000 H       1  UNL1        0.0233
     81 H           9.7101    4.4621    0.0000 H       1  UNL1        0.0233
     82 H           9.0973    3.8350    0.0000 H       1  UNL1        0.0233
     83 H           2.5387   -3.8422    0.0000 H       1  UNL1        0.2094
     84 H          12.0001    0.3943    0.0000 H       1  UNL1        0.2951
@<TRIPOS>BOND
     1     1    11    1
     2     1    72    1
     3     2    13    1
     4     2    75    1
     5     3    22    1
     6     3    79    1
     7     4    30    1
     8     4    83    1
     9     5    34    1
    10     5    84    1
    11     6    34    2
    12     7     9    1
    13     7    10    1
    14     7    12    1
    15     7    21    1
    16     8     9    1
    17     8    11    1
    18     8    17    1
    19     8    24    1
    20     9    18    1
    21     9    37    1
    22    10    15    1
    23    10    19    1
    24    10    27    1
    25    11    13    1
    26    11    14    1
    27    12    13    1
    28    12    38    1
    29    12    39    1
    30    13    40    1
    31    14    22    1
    32    14    30    1
    33    14    31    1
    34    15    16    1
    35    15    25    2
    36    16    20    1
    37    16    28    1
    38    16    41    1
    39    17    26    1
    40    17    42    1
    41    17    43    1
    42    18    25    1
    43    18    44    1
    44    18    45    1
    45    19    23    1
    46    19    46    1
    47    19    47    1
    48    20    23    1
    49    20    29    1
    50    20    34    1
    51    21    48    1
    52    21    49    1
    53    21    50    1
    54    22    26    1
    55    22    51    1
    56    23    52    1
    57    23    53    1
    58    24    54    1
    59    24    55    1
    60    24    56    1
    61    25    57    1
    62    26    58    1
    63    26    59    1
    64    27    60    1
    65    27    61    1
    66    27    62    1
    67    28    32    1
    68    28    35    1
    69    28    63    1
    70    29    33    1
    71    29    64    1
    72    29    65    1
    73    30    66    1
    74    30    67    1
    75    31    68    1
    76    31    69    1
    77    31    70    1
    78    32    33    1
    79    32    36    1
    80    32    71    1
    81    33    73    1
    82    33    74    1
    83    35    76    1
    84    35    77    1
    85    35    78    1
    86    36    80    1
    87    36    81    1
    88    36    82    1
