@<TRIPOS>MOLECULE
IMPHY007390
 28 28 0 0 0
SMALL
GASTEIGER

@<TRIPOS>ATOM
      1 O           8.4182   -1.2385    0.0000 O.3     1  UNL1       -0.3944
      2 O           6.7810    1.2094    0.0000 O.3     1  UNL1       -0.3907
      3 O           2.4608   -0.9295    0.0000 O.3     1  UNL1       -0.3947
      4 C           6.7240   -0.8784    0.0000 C.3     1  UNL1        0.0060
      5 C           6.4150   -1.8294    0.0000 C.3     1  UNL1       -0.0406
      6 C           5.4150   -1.8294    0.0000 C.3     1  UNL1       -0.0307
      7 C           5.9150   -0.2906    0.0000 C.2     1  UNL1       -0.0399
      8 C           5.1060   -0.8784    0.0000 C.2     1  UNL1       -0.0656
      9 C           7.6751   -0.5693    0.0000 C.3     1  UNL1        0.0508
     10 C           4.1550   -0.5693    0.0000 C.3     1  UNL1       -0.0081
     11 C           5.9150    0.7094    0.0000 C.3     1  UNL1        0.0659
     12 C           3.4118   -1.2385    0.0000 C.3     1  UNL1        0.0479
     13 H           6.8210   -0.2660    0.0000 H       1  UNL1        0.0369
     14 H           6.3502   -2.4460    0.0000 H       1  UNL1        0.0275
     15 H           7.0215   -1.9583    0.0000 H       1  UNL1        0.0275
     16 H           4.8086   -1.9583    0.0000 H       1  UNL1        0.0310
     17 H           5.4798   -2.4460    0.0000 H       1  UNL1        0.0310
     18 H           8.1637   -0.1876    0.0000 H       1  UNL1        0.0563
     19 H           7.3840   -0.0219    0.0000 H       1  UNL1        0.0563
     20 H           4.4460   -0.0219    0.0000 H       1  UNL1        0.0332
     21 H           3.6664   -0.1876    0.0000 H       1  UNL1        0.0332
     22 H           5.7030    1.2920    0.0000 H       1  UNL1        0.0604
     23 H           5.3044    0.6018    0.0000 H       1  UNL1        0.0604
     24 H           3.1207   -1.7859    0.0000 H       1  UNL1        0.0560
     25 H           3.9004   -1.6202    0.0000 H       1  UNL1        0.0560
     26 H           9.0079   -1.0469    0.0000 H       1  UNL1        0.2094
     27 H           6.7810    1.8294    0.0000 H       1  UNL1        0.2098
     28 H           2.0000   -1.3443    0.0000 H       1  UNL1        0.2094
@<TRIPOS>BOND
     1     1     9    1
     2     1    26    1
     3     2    11    1
     4     2    27    1
     5     3    12    1
     6     3    28    1
     7     4     5    1
     8     4     7    1
     9     4     9    1
    10     4    13    1
    11     5     6    1
    12     5    14    1
    13     5    15    1
    14     6     8    1
    15     6    16    1
    16     6    17    1
    17     7     8    2
    18     7    11    1
    19     8    10    1
    20     9    18    1
    21     9    19    1
    22    10    12    1
    23    10    20    1
    24    10    21    1
    25    11    22    1
    26    11    23    1
    27    12    24    1
    28    12    25    1
