@<TRIPOS>MOLECULE
IMPHY000295
 22 22 0 0 0
SMALL
GASTEIGER

@<TRIPOS>ATOM
      1 O           4.2690   -2.0000    0.0000 O.3     1  UNL1       -0.4950
      2 O           2.5369    1.0000    0.0000 O.3     1  UNL1       -0.5059
      3 O           3.4030    2.5000    0.0000 O.2     1  UNL1       -0.2922
      4 C           4.2690    1.0000    0.0000 C.ar    1  UNL1        0.0587
      5 C           3.4030    0.5000    0.0000 C.ar    1  UNL1        0.1308
      6 C           5.1350    0.5000    0.0000 C.ar    1  UNL1       -0.0443
      7 C           4.2690   -1.0000    0.0000 C.ar    1  UNL1        0.1236
      8 C           3.4030   -0.5000    0.0000 C.ar    1  UNL1        0.0222
      9 C           5.1350   -0.5000    0.0000 C.ar    1  UNL1       -0.0191
     10 C           4.2690    2.0000    0.0000 C.2     1  UNL1        0.1636
     11 C           5.1350    2.5000    0.0000 C.3     1  UNL1       -0.0013
     12 C           5.1350   -2.5000    0.0000 C.3     1  UNL1        0.0788
     13 H           5.6720    0.8100    0.0000 H       1  UNL1        0.0627
     14 H           2.8660   -0.8100    0.0000 H       1  UNL1        0.0691
     15 H           5.6720   -0.8100    0.0000 H       1  UNL1        0.0654
     16 H           5.4450    1.9631    0.0000 H       1  UNL1        0.0309
     17 H           5.6720    2.8100    0.0000 H       1  UNL1        0.0309
     18 H           4.8250    3.0369    0.0000 H       1  UNL1        0.0309
     19 H           2.0000    0.6900    0.0000 H       1  UNL1        0.2922
     20 H           4.8250   -3.0369    0.0000 H       1  UNL1        0.0660
     21 H           5.6720   -2.8100    0.0000 H       1  UNL1        0.0660
     22 H           5.4450   -1.9631    0.0000 H       1  UNL1        0.0660
@<TRIPOS>BOND
     1     1     7    1
     2     1    12    1
     3     2     5    1
     4     2    19    1
     5     3    10    2
     6     4     5   ar
     7     4     6   ar
     8     4    10    1
     9     5     8   ar
    10     6     9   ar
    11     6    13    1
    12     7     8   ar
    13     7     9   ar
    14     8    14    1
    15     9    15    1
    16    10    11    1
    17    11    16    1
    18    11    17    1
    19    11    18    1
    20    12    20    1
    21    12    21    1
    22    12    22    1
