@<TRIPOS>MOLECULE
IMPHY006709
 29 29 0 0 0
SMALL
GASTEIGER

@<TRIPOS>ATOM
      1 O           2.8660    1.0000    0.0000 O.3     1  UNL1       -0.4914
      2 O           4.5981    2.0000    0.0000 O.3     1  UNL1       -0.4223
      3 O           6.3301    2.0000    0.0000 O.2     1  UNL1       -0.2507
      4 C           4.5981   -1.0000    0.0000 C.ar    1  UNL1       -0.0400
      5 C           4.5981   -2.0000    0.0000 C.3     1  UNL1       -0.0096
      6 C           3.7320   -0.5000    0.0000 C.ar    1  UNL1       -0.0128
      7 C           3.7320    0.5000    0.0000 C.ar    1  UNL1        0.1625
      8 C           5.4641   -0.5000    0.0000 C.ar    1  UNL1       -0.0546
      9 C           4.5981    1.0000    0.0000 C.ar    1  UNL1        0.1730
     10 C           5.4641    0.5000    0.0000 C.ar    1  UNL1       -0.0153
     11 C           5.4641   -2.5000    0.0000 C.2     1  UNL1       -0.0868
     12 C           2.0000    0.5000    0.0000 C.3     1  UNL1        0.0790
     13 C           5.4641    2.5000    0.0000 C.2     1  UNL1        0.3093
     14 C           5.4641   -3.5000    0.0000 C.2     1  UNL1       -0.1023
     15 C           5.4641    3.5000    0.0000 C.3     1  UNL1        0.0336
     16 H           3.9875   -1.8923    0.0000 H       1  UNL1        0.0355
     17 H           4.3860   -2.5826    0.0000 H       1  UNL1        0.0355
     18 H           3.1951   -0.8100    0.0000 H       1  UNL1        0.0658
     19 H           6.0010   -0.8100    0.0000 H       1  UNL1        0.0622
     20 H           6.0010    0.8100    0.0000 H       1  UNL1        0.0656
     21 H           6.0010   -2.1900    0.0000 H       1  UNL1        0.0570
     22 H           1.6900    1.0369    0.0000 H       1  UNL1        0.0660
     23 H           1.4631    0.1900    0.0000 H       1  UNL1        0.0660
     24 H           2.3100   -0.0369    0.0000 H       1  UNL1        0.0660
     25 H           4.9272   -3.8100    0.0000 H       1  UNL1        0.0532
     26 H           6.0010   -3.8100    0.0000 H       1  UNL1        0.0532
     27 H           6.0841    3.5000    0.0000 H       1  UNL1        0.0342
     28 H           5.4641    4.1200    0.0000 H       1  UNL1        0.0342
     29 H           4.8441    3.5000    0.0000 H       1  UNL1        0.0342
@<TRIPOS>BOND
     1     1     7    1
     2     1    12    1
     3     2     9    1
     4     2    13    1
     5     3    13    2
     6     4     5    1
     7     4     6   ar
     8     4     8   ar
     9     5    11    1
    10     5    16    1
    11     5    17    1
    12     6     7   ar
    13     6    18    1
    14     7     9   ar
    15     8    10   ar
    16     8    19    1
    17     9    10   ar
    18    10    20    1
    19    11    14    2
    20    11    21    1
    21    12    22    1
    22    12    23    1
    23    12    24    1
    24    13    15    1
    25    14    25    1
    26    14    26    1
    27    15    27    1
    28    15    28    1
    29    15    29    1
