@<TRIPOS>MOLECULE
IMPHY003387
 40 41 0 0 0
SMALL
GASTEIGER

@<TRIPOS>ATOM
      1 O           2.5369    1.4947    0.0000 O.3     1  UNL1       -0.3878
      2 C           5.1350   -0.0053    0.0000 C.3     1  UNL1       -0.0078
      3 C           4.2690   -0.5053    0.0000 C.3     1  UNL1       -0.0321
      4 C           6.0290   -0.5399    0.0000 C.3     1  UNL1       -0.0371
      5 C           5.1350    0.9947    0.0000 C.2     1  UNL1       -0.0649
      6 C           6.9350   -0.0261    0.0000 C.3     1  UNL1       -0.0193
      7 C           3.4030   -0.0053    0.0000 C.3     1  UNL1       -0.0199
      8 C           6.0290    1.5294    0.0000 C.3     1  UNL1       -0.0306
      9 C           6.9350    1.0156    0.0000 C.3     1  UNL1       -0.0428
     10 C           5.1350   -1.0053    0.0000 C.3     1  UNL1       -0.0556
     11 C           3.4030    0.9947    0.0000 C.3     1  UNL1        0.0739
     12 C           4.2690    1.4947    0.0000 C.2     1  UNL1       -0.0561
     13 C           4.2690   -1.5053    0.0000 C.3     1  UNL1       -0.0615
     14 C           7.7991   -0.5294    0.0000 C.2     1  UNL1       -0.0766
     15 C           8.6671   -0.0328    0.0000 C.3     1  UNL1       -0.0438
     16 C           7.7953   -1.5294    0.0000 C.2     1  UNL1       -0.0994
     17 H           3.7320   -0.8153    0.0000 H       1  UNL1        0.0307
     18 H           5.6244   -1.0097    0.0000 H       1  UNL1        0.0279
     19 H           6.4226   -1.0189    0.0000 H       1  UNL1        0.0279
     20 H           7.4726    0.2829    0.0000 H       1  UNL1        0.0346
     21 H           2.7924    0.1024    0.0000 H       1  UNL1        0.0296
     22 H           3.1909   -0.5879    0.0000 H       1  UNL1        0.0296
     23 H           6.4226    2.0084    0.0000 H       1  UNL1        0.0310
     24 H           5.6244    1.9992    0.0000 H       1  UNL1        0.0310
     25 H           7.5459    0.9095    0.0000 H       1  UNL1        0.0274
     26 H           7.1441    1.5992    0.0000 H       1  UNL1        0.0274
     27 H           4.5150   -1.0053    0.0000 H       1  UNL1        0.0238
     28 H           5.1350   -1.6253    0.0000 H       1  UNL1        0.0238
     29 H           5.7550   -1.0053    0.0000 H       1  UNL1        0.0238
     30 H           2.8660    0.6847    0.0000 H       1  UNL1        0.0638
     31 H           4.2690    2.1147    0.0000 H       1  UNL1        0.0597
     32 H           3.6490   -1.5053    0.0000 H       1  UNL1        0.0233
     33 H           4.2690   -2.1253    0.0000 H       1  UNL1        0.0233
     34 H           4.8890   -1.5053    0.0000 H       1  UNL1        0.0233
     35 H           2.0000    1.1847    0.0000 H       1  UNL1        0.2102
     36 H           8.9750   -0.5709    0.0000 H       1  UNL1        0.0274
     37 H           9.2052    0.2752    0.0000 H       1  UNL1        0.0274
     38 H           8.3591    0.5054    0.0000 H       1  UNL1        0.0274
     39 H           7.2571   -1.8373    0.0000 H       1  UNL1        0.0534
     40 H           8.3310   -1.8415    0.0000 H       1  UNL1        0.0534
@<TRIPOS>BOND
     1    11     1    1
     2     1    35    1
     3     2     3    1
     4     2     4    1
     5     2     5    1
     6     2    10    1
     7     3     7    1
     8     3    13    1
     9     3    17    1
    10     4     6    1
    11     4    18    1
    12     4    19    1
    13     5     8    1
    14     5    12    2
    15     6     9    1
    16     6    14    1
    17     6    20    1
    18     7    11    1
    19     7    21    1
    20     7    22    1
    21     8     9    1
    22     8    23    1
    23     8    24    1
    24     9    25    1
    25     9    26    1
    26    10    27    1
    27    10    28    1
    28    10    29    1
    29    11    12    1
    30    11    30    1
    31    12    31    1
    32    13    32    1
    33    13    33    1
    34    13    34    1
    35    14    15    1
    36    14    16    2
    37    15    36    1
    38    15    37    1
    39    15    38    1
    40    16    39    1
    41    16    40    1
