@<TRIPOS>MOLECULE
IMPHY010382
 77 80 0 0 0
SMALL
GASTEIGER

@<TRIPOS>ATOM
      1 O           2.0000   -3.4959    0.0000 O.2     1  UNL1       -0.2921
      2 O          12.5175    4.2819    0.0000 O.3     1  UNL1       -0.4774
      3 O          12.8747    2.5870    0.0000 O.2     1  UNL1       -0.2455
      4 C           7.3931   -0.4436    0.0000 C.3     1  UNL1       -0.0196
      5 C           7.3931   -1.4436    0.0000 C.3     1  UNL1       -0.0051
      6 C           8.3393   -0.1389    0.0000 C.3     1  UNL1       -0.0322
      7 C           8.3393   -1.7483    0.0000 C.3     1  UNL1       -0.0431
      8 C           6.5271   -1.9436    0.0000 C.2     1  UNL1       -0.0630
      9 C           6.5271    0.0564    0.0000 C.3     1  UNL1       -0.0428
     10 C           8.9229   -0.9436    0.0000 C.3     1  UNL1       -0.0486
     11 C           5.6610   -1.4436    0.0000 C.2     1  UNL1       -0.0598
     12 C           4.7510   -1.9504    0.0000 C.3     1  UNL1        0.0112
     13 C           5.6610   -0.4436    0.0000 C.3     1  UNL1       -0.0301
     14 C           4.7430   -2.9920    0.0000 C.3     1  UNL1       -0.0160
     15 C           8.6500    0.8116    0.0000 C.3     1  UNL1       -0.0402
     16 C           7.3931    0.5564    0.0000 C.3     1  UNL1       -0.0585
     17 C           6.5431   -2.9851    0.0000 C.3     1  UNL1       -0.0306
     18 C           7.3931   -2.4436    0.0000 C.3     1  UNL1       -0.0553
     19 C           5.6451   -3.5129    0.0000 C.3     1  UNL1       -0.0445
     20 C           3.8076   -3.5418    0.0000 C.3     1  UNL1        0.0313
     21 C           4.7587   -0.9505    0.0000 C.3     1  UNL1       -0.0521
     22 C           3.8242   -1.3864    0.0000 C.2     1  UNL1       -0.0705
     23 C           9.6285    1.0179    0.0000 C.3     1  UNL1       -0.0467
     24 C           7.9821    1.5560    0.0000 C.3     1  UNL1       -0.0621
     25 C           2.8680   -2.9993    0.0000 C.2     1  UNL1        0.1617
     26 C           3.3109   -4.4097    0.0000 C.3     1  UNL1       -0.0525
     27 C           4.3109   -4.4059    0.0000 C.3     1  UNL1       -0.0525
     28 C           2.8763   -1.9143    0.0000 C.2     1  UNL1       -0.0218
     29 C           9.9391    1.9684    0.0000 C.3     1  UNL1       -0.0338
     30 C          10.9176    2.1746    0.0000 C.2     1  UNL1       -0.0743
     31 C          11.2283    3.1251    0.0000 C.2     1  UNL1        0.0294
     32 C          10.5605    3.8694    0.0000 C.3     1  UNL1       -0.0332
     33 C          12.2068    3.3314    0.0000 C.2     1  UNL1        0.3322
     34 H           9.1790   -0.0070    0.0000 H       1  UNL1        0.0309
     35 H           8.0883   -2.3152    0.0000 H       1  UNL1        0.0274
     36 H           8.8767   -2.0576    0.0000 H       1  UNL1        0.0274
     37 H           6.9256    0.5313    0.0000 H       1  UNL1        0.0274
     38 H           6.1285    0.5313    0.0000 H       1  UNL1        0.0274
     39 H           9.3838   -1.3583    0.0000 H       1  UNL1        0.0268
     40 H           9.3838   -0.5289    0.0000 H       1  UNL1        0.0268
     41 H           5.4490    0.1390    0.0000 H       1  UNL1        0.0311
     42 H           5.0504   -0.5513    0.0000 H       1  UNL1        0.0311
     43 H           4.7463   -3.8420    0.0000 H       1  UNL1        0.0322
     44 H           8.0433    0.6838    0.0000 H       1  UNL1        0.0301
     45 H           8.0131    0.5564    0.0000 H       1  UNL1        0.0235
     46 H           7.3931    1.1764    0.0000 H       1  UNL1        0.0235
     47 H           6.7731    0.5564    0.0000 H       1  UNL1        0.0235
     48 H           6.7612   -3.5655    0.0000 H       1  UNL1        0.0310
     49 H           7.1523   -2.8696    0.0000 H       1  UNL1        0.0310
     50 H           6.7731   -2.4436    0.0000 H       1  UNL1        0.0238
     51 H           7.3931   -3.0636    0.0000 H       1  UNL1        0.0238
     52 H           8.0131   -2.4436    0.0000 H       1  UNL1        0.0238
     53 H           5.2478   -3.9888    0.0000 H       1  UNL1        0.0272
     54 H           6.0460   -3.9858    0.0000 H       1  UNL1        0.0272
     55 H           5.3787   -0.9553    0.0000 H       1  UNL1        0.0241
     56 H           4.7635   -0.3305    0.0000 H       1  UNL1        0.0241
     57 H           4.1388   -0.9457    0.0000 H       1  UNL1        0.0241
     58 H           3.8361   -0.7665    0.0000 H       1  UNL1        0.0582
     59 H           9.6490    0.3982    0.0000 H       1  UNL1        0.0271
     60 H          10.2423    0.9305    0.0000 H       1  UNL1        0.0271
     61 H           8.4436    1.9700    0.0000 H       1  UNL1        0.0233
     62 H           7.5681    2.0174    0.0000 H       1  UNL1        0.0233
     63 H           7.5207    1.1419    0.0000 H       1  UNL1        0.0233
     64 H           2.7728   -4.1018    0.0000 H       1  UNL1        0.0239
     65 H           3.0030   -4.9478    0.0000 H       1  UNL1        0.0239
     66 H           3.8490   -4.7176    0.0000 H       1  UNL1        0.0239
     67 H           3.7752   -4.7179    0.0000 H       1  UNL1        0.0239
     68 H           4.6230   -4.9416    0.0000 H       1  UNL1        0.0239
     69 H           4.8466   -4.0938    0.0000 H       1  UNL1        0.0239
     70 H           2.3430   -1.5981    0.0000 H       1  UNL1        0.0650
     71 H           9.9186    2.5880    0.0000 H       1  UNL1        0.0308
     72 H           9.3253    2.0557    0.0000 H       1  UNL1        0.0308
     73 H          11.3317    1.7131    0.0000 H       1  UNL1        0.0577
     74 H          11.0219    4.2835    0.0000 H       1  UNL1        0.0280
     75 H          10.1464    4.3309    0.0000 H       1  UNL1        0.0280
     76 H          10.0990    3.4554    0.0000 H       1  UNL1        0.0280
     77 H          13.1241    4.4097    0.0000 H       1  UNL1        0.2954
@<TRIPOS>BOND
     1     1    25    2
     2     2    33    1
     3     2    77    1
     4     3    33    2
     5     4     5    1
     6     4     6    1
     7     4     9    1
     8     4    16    1
     9     5     7    1
    10     5     8    1
    11     5    18    1
    12     6    10    1
    13     6    15    1
    14     6    34    1
    15     7    10    1
    16     7    35    1
    17     7    36    1
    18     8    11    2
    19     8    17    1
    20     9    13    1
    21     9    37    1
    22     9    38    1
    23    10    39    1
    24    10    40    1
    25    11    12    1
    26    11    13    1
    27    12    14    1
    28    12    21    1
    29    12    22    1
    30    13    41    1
    31    13    42    1
    32    14    19    1
    33    14    20    1
    34    14    43    1
    35    15    23    1
    36    15    24    1
    37    15    44    1
    38    16    45    1
    39    16    46    1
    40    16    47    1
    41    17    19    1
    42    17    48    1
    43    17    49    1
    44    18    50    1
    45    18    51    1
    46    18    52    1
    47    19    53    1
    48    19    54    1
    49    20    25    1
    50    20    26    1
    51    20    27    1
    52    21    55    1
    53    21    56    1
    54    21    57    1
    55    22    28    2
    56    22    58    1
    57    23    29    1
    58    23    59    1
    59    23    60    1
    60    24    61    1
    61    24    62    1
    62    24    63    1
    63    25    28    1
    64    26    64    1
    65    26    65    1
    66    26    66    1
    67    27    67    1
    68    27    68    1
    69    27    69    1
    70    28    70    1
    71    29    30    1
    72    29    71    1
    73    29    72    1
    74    30    31    2
    75    30    73    1
    76    31    32    1
    77    31    33    1
    78    32    74    1
    79    32    75    1
    80    32    76    1
