@<TRIPOS>MOLECULE
IMPHY001984
 113 120 0 0 0
SMALL
GASTEIGER

@<TRIPOS>ATOM
      1 O           6.8671   -3.4895    0.0000 O.3     1  UNL1       -0.3451
      2 O           5.1350   -3.4895    0.0000 O.3     1  UNL1       -0.3405
      3 O           6.8671   -5.4895    0.0000 O.3     1  UNL1       -0.3378
      4 O           5.1350   -6.4895    0.0000 O.3     1  UNL1       -0.3864
      5 O           3.4030   -5.4895    0.0000 O.3     1  UNL1       -0.3865
      6 O           7.7331   -3.9895    0.0000 O.3     1  UNL1       -0.3431
      7 O           2.5369   -3.9895    0.0000 O.3     1  UNL1       -0.3924
      8 O           8.5991   -6.4895    0.0000 O.3     1  UNL1       -0.3841
      9 O          10.3312   -5.4895    0.0000 O.3     1  UNL1       -0.3864
     10 O          10.3312   -3.4895    0.0000 O.3     1  UNL1       -0.3866
     11 N           8.2902    4.7546    0.0000 N.3     1  UNL1       -0.2956
     12 C           6.8963    2.7074    0.0000 C.3     1  UNL1       -0.0244
     13 C           7.1018    3.6800    0.0000 C.3     1  UNL1       -0.0157
     14 C           7.7643    2.2107    0.0000 C.3     1  UNL1       -0.0305
     15 C           8.0901    3.7869    0.0000 C.3     1  UNL1        0.0146
     16 C           7.7681    1.2107    0.0000 C.3     1  UNL1       -0.0306
     17 C           8.4987    2.8806    0.0000 C.3     1  UNL1       -0.0334
     18 C           6.6995    4.5826    0.0000 C.3     1  UNL1       -0.0235
     19 C           6.9040    0.7074    0.0000 C.3     1  UNL1       -0.0285
     20 C           6.0322    2.2041    0.0000 C.3     1  UNL1       -0.0468
     21 C           7.4324    5.2454    0.0000 C.3     1  UNL1        0.0136
     22 C           6.0361    1.2041    0.0000 C.3     1  UNL1       -0.0486
     23 C           6.8920   -0.3342    0.0000 C.3     1  UNL1       -0.0078
     24 C           6.0284    3.2040    0.0000 C.3     1  UNL1       -0.0590
     25 C           8.6801    0.7074    0.0000 C.3     1  UNL1       -0.0311
     26 C           7.4126    6.2745    0.0000 C.3     1  UNL1       -0.0368
     27 C           9.1875    5.2589    0.0000 C.3     1  UNL1        0.0020
     28 C           5.7211    4.7893    0.0000 C.3     1  UNL1       -0.0607
     29 C           7.7920   -0.8584    0.0000 C.2     1  UNL1       -0.0648
     30 C           9.1914    6.2882    0.0000 C.3     1  UNL1       -0.0310
     31 C           5.9421   -0.8584    0.0000 C.3     1  UNL1       -0.0413
     32 C           8.2980    6.7995    0.0000 C.3     1  UNL1       -0.0479
     33 C           8.6921   -0.3342    0.0000 C.2     1  UNL1       -0.0839
     34 C           6.0279    0.1692    0.0000 C.3     1  UNL1       -0.0556
     35 C           7.8046   -1.9434    0.0000 C.3     1  UNL1       -0.0047
     36 C           5.9295   -1.9434    0.0000 C.3     1  UNL1       -0.0254
     37 C           6.8671   -2.4895    0.0000 C.3     1  UNL1        0.0655
     38 C          10.0575    6.7882    0.0000 C.3     1  UNL1       -0.0613
     39 C           6.0010   -3.9895    0.0000 C.3     1  UNL1        0.1886
     40 C           6.0010   -4.9895    0.0000 C.3     1  UNL1        0.1406
     41 C           5.1350   -5.4895    0.0000 C.3     1  UNL1        0.1144
     42 C           4.2690   -3.9895    0.0000 C.3     1  UNL1        0.1130
     43 C           4.2690   -4.9895    0.0000 C.3     1  UNL1        0.1119
     44 C           3.4030   -3.4895    0.0000 C.3     1  UNL1        0.0730
     45 C           7.7331   -4.9895    0.0000 C.3     1  UNL1        0.1884
     46 C           8.5991   -5.4895    0.0000 C.3     1  UNL1        0.1341
     47 C           9.4651   -4.9895    0.0000 C.3     1  UNL1        0.1140
     48 C           8.5991   -3.4895    0.0000 C.3     1  UNL1        0.0873
     49 C           9.4651   -3.9895    0.0000 C.3     1  UNL1        0.1095
     50 C           8.5991   -2.4895    0.0000 C.3     1  UNL1       -0.0361
     51 H           6.2565    3.5905    0.0000 H       1  UNL1        0.0324
     52 H           8.5426    1.8690    0.0000 H       1  UNL1        0.0309
     53 H           8.9350    3.8801    0.0000 H       1  UNL1        0.0466
     54 H           8.4993    1.6442    0.0000 H       1  UNL1        0.0309
     55 H           8.8661    2.3812    0.0000 H       1  UNL1        0.0283
     56 H           9.0340    3.1935    0.0000 H       1  UNL1        0.0283
     57 H           6.5380    5.1812    0.0000 H       1  UNL1        0.0317
     58 H           7.6385    0.2796    0.0000 H       1  UNL1        0.0312
     59 H           5.8179    2.7858    0.0000 H       1  UNL1        0.0271
     60 H           5.4221    2.0940    0.0000 H       1  UNL1        0.0271
     61 H           6.6523    5.5828    0.0000 H       1  UNL1        0.0465
     62 H           5.4251    1.3094    0.0000 H       1  UNL1        0.0268
     63 H           5.8263    0.6206    0.0000 H       1  UNL1        0.0268
     64 H           6.3363    3.7422    0.0000 H       1  UNL1        0.0235
     65 H           5.4902    3.5120    0.0000 H       1  UNL1        0.0235
     66 H           5.7204    2.6659    0.0000 H       1  UNL1        0.0235
     67 H           9.2921    0.6084    0.0000 H       1  UNL1        0.0310
     68 H           8.8824    1.2935    0.0000 H       1  UNL1        0.0310
     69 H           7.1924    6.8541    0.0000 H       1  UNL1        0.0280
     70 H           6.8039    6.1567    0.0000 H       1  UNL1        0.0280
     71 H           9.3943    4.6744    0.0000 H       1  UNL1        0.0429
     72 H           9.7987    5.3627    0.0000 H       1  UNL1        0.0429
     73 H           5.8492    5.3959    0.0000 H       1  UNL1        0.0233
     74 H           5.1145    4.9174    0.0000 H       1  UNL1        0.0233
     75 H           5.5929    4.1827    0.0000 H       1  UNL1        0.0233
     76 H           9.1902    6.9082    0.0000 H       1  UNL1        0.0310
     77 H           5.7398   -0.2724    0.0000 H       1  UNL1        0.0274
     78 H           5.3300   -0.9575    0.0000 H       1  UNL1        0.0274
     79 H           8.6935    7.2770    0.0000 H       1  UNL1        0.0269
     80 H           7.8952    7.2708    0.0000 H       1  UNL1        0.0269
     81 H           9.2314   -0.6400    0.0000 H       1  UNL1        0.0572
     82 H           6.3400    0.7049    0.0000 H       1  UNL1        0.0238
     83 H           5.4922    0.4812    0.0000 H       1  UNL1        0.0238
     84 H           5.7158   -0.3666    0.0000 H       1  UNL1        0.0238
     85 H           8.0204   -2.5246    0.0000 H       1  UNL1        0.0335
     86 H           8.4142   -1.8302    0.0000 H       1  UNL1        0.0335
     87 H           5.3199   -1.8302    0.0000 H       1  UNL1        0.0290
     88 H           5.7137   -2.5246    0.0000 H       1  UNL1        0.0290
     89 H           7.4046   -2.7984    0.0000 H       1  UNL1        0.0600
     90 H          10.3675    6.2513    0.0000 H       1  UNL1        0.0233
     91 H          10.5944    7.0982    0.0000 H       1  UNL1        0.0233
     92 H           9.7475    7.3252    0.0000 H       1  UNL1        0.0233
     93 H           6.0010   -3.3695    0.0000 H       1  UNL1        0.0938
     94 H           6.0010   -5.6095    0.0000 H       1  UNL1        0.0675
     95 H           4.5981   -5.7995    0.0000 H       1  UNL1        0.0648
     96 H           4.2690   -3.3695    0.0000 H       1  UNL1        0.0647
     97 H           4.2690   -5.6095    0.0000 H       1  UNL1        0.0647
     98 H           3.8015   -3.0145    0.0000 H       1  UNL1        0.0584
     99 H           3.0044   -3.0145    0.0000 H       1  UNL1        0.0584
    100 H           7.1962   -4.6795    0.0000 H       1  UNL1        0.0938
    101 H           4.5981   -6.7995    0.0000 H       1  UNL1        0.2100
    102 H           3.4030   -6.1095    0.0000 H       1  UNL1        0.2100
    103 H           8.0622   -5.7995    0.0000 H       1  UNL1        0.0671
    104 H           9.4651   -5.6095    0.0000 H       1  UNL1        0.0648
    105 H           2.0000   -3.6795    0.0000 H       1  UNL1        0.2095
    106 H           8.0622   -3.1795    0.0000 H       1  UNL1        0.0621
    107 H          10.0021   -4.2995    0.0000 H       1  UNL1        0.0646
    108 H           9.1360   -6.7995    0.0000 H       1  UNL1        0.2101
    109 H           9.2191   -2.4895    0.0000 H       1  UNL1        0.0255
    110 H           8.5991   -1.8695    0.0000 H       1  UNL1        0.0255
    111 H           7.9791   -2.4895    0.0000 H       1  UNL1        0.0255
    112 H          10.8681   -5.1795    0.0000 H       1  UNL1        0.2100
    113 H          10.8681   -3.7995    0.0000 H       1  UNL1        0.2100
@<TRIPOS>BOND
     1    37     1    1
     2    39     1    1
     3     2    39    1
     4     2    42    1
     5    40     3    1
     6    45     3    1
     7    41     4    1
     8     4   101    1
     9    43     5    1
    10     5   102    1
    11     6    45    1
    12     6    48    1
    13     7    44    1
    14     7   105    1
    15    46     8    1
    16     8   108    1
    17    47     9    1
    18     9   112    1
    19    49    10    1
    20    10   113    1
    21    11    15    1
    22    11    21    1
    23    11    27    1
    24    12    13    1
    25    12    14    1
    26    12    20    1
    27    12    24    1
    28    13    15    1
    29    13    18    1
    30    13    51    1
    31    14    16    1
    32    14    17    1
    33    14    52    1
    34    15    17    1
    35    15    53    1
    36    16    19    1
    37    16    25    1
    38    16    54    1
    39    17    55    1
    40    17    56    1
    41    18    21    1
    42    18    28    1
    43    18    57    1
    44    19    22    1
    45    19    23    1
    46    19    58    1
    47    20    22    1
    48    20    59    1
    49    20    60    1
    50    21    26    1
    51    21    61    1
    52    22    62    1
    53    22    63    1
    54    23    29    1
    55    23    31    1
    56    23    34    1
    57    24    64    1
    58    24    65    1
    59    24    66    1
    60    25    33    1
    61    25    67    1
    62    25    68    1
    63    26    32    1
    64    26    69    1
    65    26    70    1
    66    27    30    1
    67    27    71    1
    68    27    72    1
    69    28    73    1
    70    28    74    1
    71    28    75    1
    72    29    33    2
    73    29    35    1
    74    30    32    1
    75    30    38    1
    76    30    76    1
    77    31    36    1
    78    31    77    1
    79    31    78    1
    80    32    79    1
    81    32    80    1
    82    33    81    1
    83    34    82    1
    84    34    83    1
    85    34    84    1
    86    35    37    1
    87    35    85    1
    88    35    86    1
    89    36    37    1
    90    36    87    1
    91    36    88    1
    92    37    89    1
    93    38    90    1
    94    38    91    1
    95    38    92    1
    96    39    40    1
    97    39    93    1
    98    40    41    1
    99    40    94    1
   100    41    43    1
   101    41    95    1
   102    42    43    1
   103    42    44    1
   104    42    96    1
   105    43    97    1
   106    44    98    1
   107    44    99    1
   108    45    46    1
   109    45   100    1
   110    46    47    1
   111    46   103    1
   112    47    49    1
   113    47   104    1
   114    48    49    1
   115    48    50    1
   116    48   106    1
   117    49   107    1
   118    50   109    1
   119    50   110    1
   120    50   111    1
