@<TRIPOS>MOLECULE
IMPHY010656
 86 90 0 0 0
SMALL
GASTEIGER

@<TRIPOS>ATOM
      1 O           3.7320   -3.1815    0.0000 O.3     1  UNL1       -0.4613
      2 O           2.8602   -1.6849    0.0000 O.2     1  UNL1       -0.2512
      3 C           7.2622   -1.1574    0.0000 C.3     1  UNL1       -0.0194
      4 C           6.3961   -1.6574    0.0000 C.3     1  UNL1       -0.0195
      5 C           6.3959   -0.6569    0.0000 C.3     1  UNL1       -0.0401
      6 C           8.1282   -1.6574    0.0000 C.3     1  UNL1       -0.0289
      7 C           9.0382   -1.1505    0.0000 C.3     1  UNL1       -0.0231
      8 C           6.3961   -2.6574    0.0000 C.3     1  UNL1       -0.0289
      9 C           7.2461   -0.1159    0.0000 C.3     1  UNL1       -0.0460
     10 C           9.0462   -0.1089    0.0000 C.3     1  UNL1       -0.0233
     11 C           5.5022   -1.1227    0.0000 C.3     1  UNL1       -0.0432
     12 C           8.1282   -2.6574    0.0000 C.3     1  UNL1       -0.0489
     13 C           8.1441    0.4119    0.0000 C.3     1  UNL1       -0.0463
     14 C           7.2622   -3.1574    0.0000 C.3     1  UNL1       -0.0490
     15 C           5.5022   -3.1920    0.0000 C.3     1  UNL1       -0.0033
     16 C          10.0342    0.2009    0.0000 C.3     1  UNL1       -0.0325
     17 C          10.0213   -1.4755    0.0000 C.3     1  UNL1       -0.0466
     18 C           4.5961   -1.6365    0.0000 C.3     1  UNL1       -0.0149
     19 C          10.6357   -0.6420    0.0000 C.3     1  UNL1       -0.0489
     20 C           4.5961   -2.6782    0.0000 C.3     1  UNL1        0.1059
     21 C           9.0305   -2.1505    0.0000 C.3     1  UNL1       -0.0588
     22 C           9.0539    0.8911    0.0000 C.3     1  UNL1       -0.0588
     23 C          10.3522    1.1490    0.0000 C.3     1  UNL1       -0.0402
     24 C           5.5138   -4.1920    0.0000 C.3     1  UNL1       -0.0588
     25 C          11.3323    1.3477    0.0000 C.3     1  UNL1       -0.0465
     26 C           9.6901    1.8984    0.0000 C.3     1  UNL1       -0.0621
     27 C          11.6503    2.2958    0.0000 C.3     1  UNL1       -0.0315
     28 C           2.8641   -2.6848    0.0000 C.2     1  UNL1        0.3042
     29 C          12.6303    2.4944    0.0000 C.2     1  UNL1       -0.0740
     30 C           2.0000   -3.1882    0.0000 C.3     1  UNL1        0.0332
     31 C          12.9483    3.4425    0.0000 C.3     1  UNL1       -0.0258
     32 C          13.2924    1.7450    0.0000 C.2     1  UNL1       -0.0992
     33 C          13.9284    3.6412    0.0000 C.3     1  UNL1       -0.0590
     34 C          12.2862    4.1920    0.0000 C.3     1  UNL1       -0.0590
     35 H           6.6080   -0.0743    0.0000 H       1  UNL1        0.0276
     36 H           5.7853   -0.5493    0.0000 H       1  UNL1        0.0276
     37 H           8.8610   -2.0880    0.0000 H       1  UNL1        0.0312
     38 H           6.4027   -3.5073    0.0000 H       1  UNL1        0.0310
     39 H           7.0281    0.4645    0.0000 H       1  UNL1        0.0271
     40 H           6.6370   -0.2314    0.0000 H       1  UNL1        0.0271
     41 H           5.9068   -0.6529    0.0000 H       1  UNL1        0.0272
     42 H           5.1086   -0.6437    0.0000 H       1  UNL1        0.0272
     43 H           8.3402   -3.2400    0.0000 H       1  UNL1        0.0268
     44 H           8.7388   -2.5497    0.0000 H       1  UNL1        0.0268
     45 H           8.5414    0.8879    0.0000 H       1  UNL1        0.0271
     46 H           7.7432    0.8848    0.0000 H       1  UNL1        0.0271
     47 H           6.8636   -3.6323    0.0000 H       1  UNL1        0.0268
     48 H           7.6607   -3.6323    0.0000 H       1  UNL1        0.0268
     49 H           4.9683   -3.5072    0.0000 H       1  UNL1        0.0337
     50 H          10.8749    0.3263    0.0000 H       1  UNL1        0.0309
     51 H           9.7659   -2.0405    0.0000 H       1  UNL1        0.0271
     52 H          10.5563   -1.7889    0.0000 H       1  UNL1        0.0271
     53 H           4.3871   -1.0528    0.0000 H       1  UNL1        0.0301
     54 H           3.9853   -1.7426    0.0000 H       1  UNL1        0.0301
     55 H          11.0933   -1.0603    0.0000 H       1  UNL1        0.0268
     56 H          11.0997   -0.2308    0.0000 H       1  UNL1        0.0268
     57 H           4.5997   -3.2982    0.0000 H       1  UNL1        0.0736
     58 H           8.4105   -2.1457    0.0000 H       1  UNL1        0.0235
     59 H           9.0257   -2.7705    0.0000 H       1  UNL1        0.0235
     60 H           9.6505   -2.1553    0.0000 H       1  UNL1        0.0235
     61 H           9.6739    0.8863    0.0000 H       1  UNL1        0.0235
     62 H           9.0587    1.5110    0.0000 H       1  UNL1        0.0235
     63 H           8.4340    0.8958    0.0000 H       1  UNL1        0.0235
     64 H           9.7446    1.0258    0.0000 H       1  UNL1        0.0301
     65 H           4.8938   -4.1991    0.0000 H       1  UNL1        0.0234
     66 H           5.5209   -4.8119    0.0000 H       1  UNL1        0.0234
     67 H           6.1337   -4.1848    0.0000 H       1  UNL1        0.0234
     68 H          11.3481    0.7279    0.0000 H       1  UNL1        0.0271
     69 H          11.9454    1.2556    0.0000 H       1  UNL1        0.0271
     70 H          10.1548    2.3089    0.0000 H       1  UNL1        0.0233
     71 H           9.2796    2.3631    0.0000 H       1  UNL1        0.0233
     72 H           9.2255    1.4879    0.0000 H       1  UNL1        0.0233
     73 H          11.6345    2.9156    0.0000 H       1  UNL1        0.0310
     74 H          11.0372    2.3878    0.0000 H       1  UNL1        0.0310
     75 H           1.6879   -2.6524    0.0000 H       1  UNL1        0.0342
     76 H           1.4643   -3.5002    0.0000 H       1  UNL1        0.0342
     77 H           2.3121   -3.7239    0.0000 H       1  UNL1        0.0342
     78 H          13.3588    2.9779    0.0000 H       1  UNL1        0.0340
     79 H          13.0953    1.1572    0.0000 H       1  UNL1        0.0534
     80 H          13.9001    1.8682    0.0000 H       1  UNL1        0.0534
     81 H          12.7509    4.6024    0.0000 H       1  UNL1        0.0235
     82 H          11.8757    4.6566    0.0000 H       1  UNL1        0.0235
     83 H          14.0516    3.0336    0.0000 H       1  UNL1        0.0235
     84 H          14.5360    3.7644    0.0000 H       1  UNL1        0.0235
     85 H          13.8052    4.2488    0.0000 H       1  UNL1        0.0235
     86 H          11.8216    3.7815    0.0000 H       1  UNL1        0.0235
@<TRIPOS>BOND
     1    20     1    1
     2     1    28    1
     3     2    28    2
     4     3     4    1
     5     3     5    1
     6     3     6    1
     7     3     9    1
     8     4     5    1
     9     4     8    1
    10     4    11    1
    11     5    35    1
    12     5    36    1
    13     6     7    1
    14     6    12    1
    15     6    37    1
    16     7    10    1
    17     7    17    1
    18     7    21    1
    19     8    14    1
    20     8    15    1
    21     8    38    1
    22     9    13    1
    23     9    39    1
    24     9    40    1
    25    10    13    1
    26    10    16    1
    27    10    22    1
    28    11    18    1
    29    11    41    1
    30    11    42    1
    31    12    14    1
    32    12    43    1
    33    12    44    1
    34    13    45    1
    35    13    46    1
    36    14    47    1
    37    14    48    1
    38    15    20    1
    39    15    24    1
    40    15    49    1
    41    16    19    1
    42    16    23    1
    43    16    50    1
    44    17    19    1
    45    17    51    1
    46    17    52    1
    47    18    20    1
    48    18    53    1
    49    18    54    1
    50    19    55    1
    51    19    56    1
    52    20    57    1
    53    21    58    1
    54    21    59    1
    55    21    60    1
    56    22    61    1
    57    22    62    1
    58    22    63    1
    59    23    25    1
    60    23    26    1
    61    23    64    1
    62    24    65    1
    63    24    66    1
    64    24    67    1
    65    25    27    1
    66    25    68    1
    67    25    69    1
    68    26    70    1
    69    26    71    1
    70    26    72    1
    71    27    29    1
    72    27    73    1
    73    27    74    1
    74    28    30    1
    75    29    31    1
    76    29    32    2
    77    30    75    1
    78    30    76    1
    79    30    77    1
    80    31    33    1
    81    31    34    1
    82    31    78    1
    83    32    79    1
    84    32    80    1
    85    33    83    1
    86    33    84    1
    87    33    85    1
    88    34    81    1
    89    34    82    1
    90    34    86    1
