@<TRIPOS>MOLECULE
IMPHY012268
 28 27 0 0 0
SMALL
GASTEIGER

@<TRIPOS>ATOM
      1 O           2.5369    1.0000    0.0000 O.3     1  UNL1       -0.3878
      2 C           6.0010    1.0000    0.0000 C.3     1  UNL1       -0.0530
      3 C           5.1350    0.5000    0.0000 C.3     1  UNL1       -0.0504
      4 C           6.8671    0.5000    0.0000 C.3     1  UNL1       -0.0533
      5 C           4.2690    1.0000    0.0000 C.3     1  UNL1       -0.0233
      6 C           7.7331    1.0000    0.0000 C.3     1  UNL1       -0.0559
      7 C           3.4030    0.5000    0.0000 C.3     1  UNL1        0.0731
      8 C           8.5991    0.5000    0.0000 C.3     1  UNL1       -0.0653
      9 C           3.4030   -0.5000    0.0000 C.2     1  UNL1       -0.0630
     10 C           2.5369   -1.0000    0.0000 C.2     1  UNL1       -0.1002
     11 H           6.3996    1.4750    0.0000 H       1  UNL1        0.0265
     12 H           5.6025    1.4750    0.0000 H       1  UNL1        0.0265
     13 H           4.7365    0.0251    0.0000 H       1  UNL1        0.0266
     14 H           5.5335    0.0251    0.0000 H       1  UNL1        0.0266
     15 H           6.4685    0.0251    0.0000 H       1  UNL1        0.0265
     16 H           7.2656    0.0251    0.0000 H       1  UNL1        0.0265
     17 H           4.6675    1.4750    0.0000 H       1  UNL1        0.0293
     18 H           3.8705    1.4750    0.0000 H       1  UNL1        0.0293
     19 H           8.1316    1.4750    0.0000 H       1  UNL1        0.0263
     20 H           7.3346    1.4750    0.0000 H       1  UNL1        0.0263
     21 H           3.4030    1.1200    0.0000 H       1  UNL1        0.0637
     22 H           8.2891   -0.0369    0.0000 H       1  UNL1        0.0230
     23 H           9.1360    0.1900    0.0000 H       1  UNL1        0.0230
     24 H           8.9091    1.0369    0.0000 H       1  UNL1        0.0230
     25 H           3.9399   -0.8100    0.0000 H       1  UNL1        0.0592
     26 H           2.0000    0.6900    0.0000 H       1  UNL1        0.2102
     27 H           2.0000   -0.6900    0.0000 H       1  UNL1        0.0533
     28 H           2.5369   -1.6200    0.0000 H       1  UNL1        0.0533
@<TRIPOS>BOND
     1     1     7    1
     2     1    26    1
     3     2     3    1
     4     2     4    1
     5     2    11    1
     6     2    12    1
     7     3     5    1
     8     3    13    1
     9     3    14    1
    10     4     6    1
    11     4    15    1
    12     4    16    1
    13     5     7    1
    14     5    17    1
    15     5    18    1
    16     6     8    1
    17     6    19    1
    18     6    20    1
    19     7     9    1
    20     7    21    1
    21     8    22    1
    22     8    23    1
    23     8    24    1
    24     9    10    2
    25     9    25    1
    26    10    27    1
    27    10    28    1
