@<TRIPOS>MOLECULE
IMPHY016460
 26 25 0 0 0
SMALL
GASTEIGER

@<TRIPOS>ATOM
      1 O           2.8660   -1.0600    0.0000 O.2     1  UNL1       -0.2977
      2 C           7.1962    0.4400    0.0000 C.3     1  UNL1       -0.0350
      3 C           4.5981   -0.0600    0.0000 C.3     1  UNL1       -0.0281
      4 C           8.0622   -0.0600    0.0000 C.3     1  UNL1       -0.0525
      5 C           3.7320    0.4400    0.0000 C.3     1  UNL1        0.0090
      6 C           6.3301   -0.0600    0.0000 C.2     1  UNL1       -0.0879
      7 C           5.4641    0.4400    0.0000 C.2     1  UNL1       -0.0875
      8 C           8.9282    0.4400    0.0000 C.3     1  UNL1       -0.0650
      9 C           2.8660   -0.0600    0.0000 C.2     1  UNL1        0.1306
     10 C           2.0000    0.4400    0.0000 C.3     1  UNL1       -0.0061
     11 H           7.5947    0.9149    0.0000 H       1  UNL1        0.0307
     12 H           6.7976    0.9149    0.0000 H       1  UNL1        0.0307
     13 H           4.1996   -0.5349    0.0000 H       1  UNL1        0.0311
     14 H           4.9966   -0.5349    0.0000 H       1  UNL1        0.0311
     15 H           7.6636   -0.5349    0.0000 H       1  UNL1        0.0266
     16 H           8.4607   -0.5349    0.0000 H       1  UNL1        0.0266
     17 H           4.1306    0.9149    0.0000 H       1  UNL1        0.0344
     18 H           3.3335    0.9149    0.0000 H       1  UNL1        0.0344
     19 H           6.3301   -0.6800    0.0000 H       1  UNL1        0.0569
     20 H           5.4641    1.0600    0.0000 H       1  UNL1        0.0569
     21 H           9.2382   -0.0969    0.0000 H       1  UNL1        0.0230
     22 H           9.4651    0.7500    0.0000 H       1  UNL1        0.0230
     23 H           8.6182    0.9769    0.0000 H       1  UNL1        0.0230
     24 H           2.3100    0.9769    0.0000 H       1  UNL1        0.0306
     25 H           1.4631    0.7500    0.0000 H       1  UNL1        0.0306
     26 H           1.6900   -0.0969    0.0000 H       1  UNL1        0.0306
@<TRIPOS>BOND
     1     1     9    2
     2     2     4    1
     3     2     6    1
     4     2    11    1
     5     2    12    1
     6     3     5    1
     7     3     7    1
     8     3    13    1
     9     3    14    1
    10     4     8    1
    11     4    15    1
    12     4    16    1
    13     5     9    1
    14     5    17    1
    15     5    18    1
    16     6     7    2
    17     6    19    1
    18     7    20    1
    19     8    21    1
    20     8    22    1
    21     8    23    1
    22     9    10    1
    23    10    24    1
    24    10    25    1
    25    10    26    1
