@<TRIPOS>MOLECULE
IMPHY006765
 35 37 0 0 0
SMALL
GASTEIGER

@<TRIPOS>ATOM
      1 O           2.0000    1.9508    0.0000 O.2     1  UNL1       -0.2924
      2 C           3.7320   -0.0492    0.0000 C.3     1  UNL1       -0.0048
      3 C           2.8660    0.4508    0.0000 C.3     1  UNL1        0.0290
      4 C           2.8658   -0.5496    0.0000 C.3     1  UNL1       -0.0350
      5 C           4.5981    0.4508    0.0000 C.3     1  UNL1       -0.0069
      6 C           3.7160   -1.0907    0.0000 C.3     1  UNL1       -0.0278
      7 C           5.5081   -0.0560    0.0000 C.3     1  UNL1       -0.0436
      8 C           4.6140   -1.6184    0.0000 C.3     1  UNL1       -0.0473
      9 C           2.8660    1.4508    0.0000 C.2     1  UNL1        0.1595
     10 C           5.5161   -1.0976    0.0000 C.3     1  UNL1       -0.0518
     11 C           4.5981    1.4508    0.0000 C.2     1  UNL1       -0.0742
     12 C           5.4641    0.9508    0.0000 C.3     1  UNL1       -0.0555
     13 C           3.2060   -1.9508    0.0000 C.3     1  UNL1       -0.0593
     14 C           2.7724   -1.4218    0.0000 C.3     1  UNL1       -0.0593
     15 C           3.7320    1.9508    0.0000 C.2     1  UNL1       -0.0223
     16 H           2.0160    0.4510    0.0000 H       1  UNL1        0.0387
     17 H           2.2552   -0.6572    0.0000 H       1  UNL1        0.0278
     18 H           3.0779   -1.1322    0.0000 H       1  UNL1        0.0278
     19 H           6.1197   -0.1574    0.0000 H       1  UNL1        0.0274
     20 H           5.7126    0.5293    0.0000 H       1  UNL1        0.0274
     21 H           4.2131   -2.0913    0.0000 H       1  UNL1        0.0271
     22 H           5.0113   -2.0944    0.0000 H       1  UNL1        0.0271
     23 H           5.7297   -1.6797    0.0000 H       1  UNL1        0.0266
     24 H           6.1261   -0.9868    0.0000 H       1  UNL1        0.0266
     25 H           5.1350    1.7608    0.0000 H       1  UNL1        0.0579
     26 H           5.7741    0.4139    0.0000 H       1  UNL1        0.0238
     27 H           6.0010    1.2608    0.0000 H       1  UNL1        0.0238
     28 H           5.1541    1.4878    0.0000 H       1  UNL1        0.0238
     29 H           2.6727   -1.6347    0.0000 H       1  UNL1        0.0235
     30 H           2.8898   -2.4842    0.0000 H       1  UNL1        0.0235
     31 H           3.7393   -2.2670    0.0000 H       1  UNL1        0.0235
     32 H           2.5671   -0.8368    0.0000 H       1  UNL1        0.0235
     33 H           2.1874   -1.6271    0.0000 H       1  UNL1        0.0235
     34 H           2.9777   -2.0068    0.0000 H       1  UNL1        0.0235
     35 H           3.7320    2.5708    0.0000 H       1  UNL1        0.0649
@<TRIPOS>BOND
     1     1     9    2
     2     2     3    1
     3     2     4    1
     4     2     5    1
     5     2     6    1
     6     3     4    1
     7     3     9    1
     8     3    16    1
     9     4    17    1
    10     4    18    1
    11     5     7    1
    12     5    11    1
    13     5    12    1
    14     6     8    1
    15     6    13    1
    16     6    14    1
    17     7    10    1
    18     7    19    1
    19     7    20    1
    20     8    10    1
    21     8    21    1
    22     8    22    1
    23     9    15    1
    24    10    23    1
    25    10    24    1
    26    11    15    2
    27    11    25    1
    28    12    26    1
    29    12    27    1
    30    12    28    1
    31    13    29    1
    32    13    30    1
    33    13    31    1
    34    14    32    1
    35    14    33    1
    36    14    34    1
    37    15    35    1
