@<TRIPOS>MOLECULE
IMPHY003253
 18 18 0 0 0
SMALL
GASTEIGER

@<TRIPOS>ATOM
      1 O           2.8660    1.6550    0.0000 O.3     1  UNL1       -0.4773
      2 O           2.0000    0.1550    0.0000 O.2     1  UNL1       -0.2455
      3 N           4.5981   -1.3450    0.0000 N.3     1  UNL1       -0.3115
      4 C           5.4641   -0.8450    0.0000 C.3     1  UNL1       -0.0004
      5 C           5.4641    0.1550    0.0000 C.3     1  UNL1       -0.0214
      6 C           3.7320   -0.8450    0.0000 C.3     1  UNL1        0.0277
      7 C           3.7320    0.1550    0.0000 C.2     1  UNL1        0.0463
      8 C           4.5981    0.6550    0.0000 C.2     1  UNL1       -0.0716
      9 C           2.8660    0.6550    0.0000 C.2     1  UNL1        0.3337
     10 H           5.6762   -1.4276    0.0000 H       1  UNL1        0.0427
     11 H           6.0747   -0.7373    0.0000 H       1  UNL1        0.0427
     12 H           6.0747    0.0473    0.0000 H       1  UNL1        0.0320
     13 H           5.6762    0.7376    0.0000 H       1  UNL1        0.0320
     14 H           3.1215   -0.7373    0.0000 H       1  UNL1        0.0476
     15 H           3.5200   -1.4276    0.0000 H       1  UNL1        0.0476
     16 H           4.5981   -1.9650    0.0000 H       1  UNL1        0.1223
     17 H           4.5981    1.2750    0.0000 H       1  UNL1        0.0578
     18 H           2.3291    1.9650    0.0000 H       1  UNL1        0.2954
@<TRIPOS>BOND
     1     1     9    1
     2     1    18    1
     3     2     9    2
     4     3     4    1
     5     3     6    1
     6     3    16    1
     7     4     5    1
     8     4    10    1
     9     4    11    1
    10     5     8    1
    11     5    12    1
    12     5    13    1
    13     6     7    1
    14     6    14    1
    15     6    15    1
    16     7     8    2
    17     7     9    1
    18     8    17    1
