@<TRIPOS>MOLECULE
IMPHY012549
 40 41 0 0 0
SMALL
GASTEIGER

@<TRIPOS>ATOM
      1 O           5.5202    1.0716    0.0000 O.3     1  UNL1       -0.3873
      2 O           4.8479    3.1407    0.0000 O.3     1  UNL1       -0.3876
      3 O           2.0280   -2.2071    0.0000 O.3     1  UNL1       -0.4914
      4 O           3.7601   -3.2071    0.0000 O.3     1  UNL1       -0.4915
      5 N           2.9511    1.3807    0.0000 N.3     1  UNL1       -0.2909
      6 C           3.7601    0.7929    0.0000 C.3     1  UNL1        0.0643
      7 C           3.2601    2.3317    0.0000 C.3     1  UNL1        0.0364
      8 C           4.5691    1.3807    0.0000 C.3     1  UNL1        0.1020
      9 C           4.2601    2.3317    0.0000 C.3     1  UNL1        0.0980
     10 C           3.7601   -0.2071    0.0000 C.ar    1  UNL1       -0.0240
     11 C           2.6723    3.1407    0.0000 C.3     1  UNL1       -0.0470
     12 C           2.0000    1.0716    0.0000 C.3     1  UNL1       -0.0117
     13 C           2.8940   -0.7071    0.0000 C.ar    1  UNL1       -0.0115
     14 C           4.6261   -0.7071    0.0000 C.ar    1  UNL1       -0.0533
     15 C           2.8940   -1.7071    0.0000 C.ar    1  UNL1        0.1618
     16 C           4.6261   -1.7071    0.0000 C.ar    1  UNL1       -0.0160
     17 C           3.7601   -2.2071    0.0000 C.ar    1  UNL1        0.1615
     18 C           2.0280   -3.2071    0.0000 C.3     1  UNL1        0.0790
     19 C           4.6261   -3.7071    0.0000 C.3     1  UNL1        0.0790
     20 H           4.3125    0.5114    0.0000 H       1  UNL1        0.0539
     21 H           2.6477    2.2347    0.0000 H       1  UNL1        0.0486
     22 H           4.6661    0.7683    0.0000 H       1  UNL1        0.0639
     23 H           4.8724    2.2347    0.0000 H       1  UNL1        0.0635
     24 H           3.1739    3.5052    0.0000 H       1  UNL1        0.0246
     25 H           2.3079    3.6423    0.0000 H       1  UNL1        0.0246
     26 H           2.1707    2.7763    0.0000 H       1  UNL1        0.0246
     27 H           1.8084    1.6613    0.0000 H       1  UNL1        0.0391
     28 H           1.4103    0.8800    0.0000 H       1  UNL1        0.0391
     29 H           2.1916    0.4820    0.0000 H       1  UNL1        0.0391
     30 H           5.9809    1.4865    0.0000 H       1  UNL1        0.2100
     31 H           4.5957    3.7071    0.0000 H       1  UNL1        0.2100
     32 H           2.3571   -0.3971    0.0000 H       1  UNL1        0.0658
     33 H           5.1630   -0.3971    0.0000 H       1  UNL1        0.0622
     34 H           5.1630   -2.0171    0.0000 H       1  UNL1        0.0655
     35 H           1.4080   -3.2071    0.0000 H       1  UNL1        0.0660
     36 H           2.0280   -3.8271    0.0000 H       1  UNL1        0.0660
     37 H           2.6480   -3.2071    0.0000 H       1  UNL1        0.0660
     38 H           4.3161   -4.2441    0.0000 H       1  UNL1        0.0660
     39 H           5.1630   -4.0171    0.0000 H       1  UNL1        0.0660
     40 H           4.9361   -3.1702    0.0000 H       1  UNL1        0.0660
@<TRIPOS>BOND
     1     8     1    1
     2     1    30    1
     3     9     2    1
     4     2    31    1
     5     3    15    1
     6     3    18    1
     7     4    17    1
     8     4    19    1
     9     5     6    1
    10     5     7    1
    11     5    12    1
    12     6     8    1
    13     6    10    1
    14     6    20    1
    15     7     9    1
    16     7    11    1
    17     7    21    1
    18     8     9    1
    19     8    22    1
    20     9    23    1
    21    10    13   ar
    22    10    14   ar
    23    11    24    1
    24    11    25    1
    25    11    26    1
    26    12    27    1
    27    12    28    1
    28    12    29    1
    29    13    15   ar
    30    13    32    1
    31    14    16   ar
    32    14    33    1
    33    15    17   ar
    34    16    17   ar
    35    16    34    1
    36    18    35    1
    37    18    36    1
    38    18    37    1
    39    19    38    1
    40    19    39    1
    41    19    40    1
