@<TRIPOS>MOLECULE
IMPHY004645
 97 98 0 0 0
SMALL
GASTEIGER

@<TRIPOS>ATOM
      1 O           3.8660   -9.5950    0.0000 O.3     1  UNL1       -0.3914
      2 C           3.0000   -7.0950    0.0000 C.3     1  UNL1       -0.0076
      3 C           3.0000   -8.0950    0.0000 C.3     1  UNL1       -0.0174
      4 C          12.5263    8.4050    0.0000 C.3     1  UNL1       -0.0099
      5 C           3.8660   -8.5950    0.0000 C.3     1  UNL1        0.0597
      6 C           3.8660   -6.5950    0.0000 C.2     1  UNL1       -0.0426
      7 C          12.5263    9.4050    0.0000 C.3     1  UNL1       -0.0436
      8 C           4.7320   -8.0950    0.0000 C.3     1  UNL1       -0.0053
      9 C           4.7320   -7.0950    0.0000 C.2     1  UNL1       -0.0665
     10 C          11.6603    9.9050    0.0000 C.3     1  UNL1       -0.0486
     11 C          11.6603    7.9050    0.0000 C.2     1  UNL1       -0.0427
     12 C           2.0000   -7.0950    0.0000 C.3     1  UNL1       -0.0557
     13 C           2.5000   -6.2290    0.0000 C.3     1  UNL1       -0.0557
     14 C          10.7942    9.4050    0.0000 C.3     1  UNL1       -0.0314
     15 C          10.7942    8.4050    0.0000 C.2     1  UNL1       -0.0689
     16 C          13.5263    8.4050    0.0000 C.3     1  UNL1       -0.0558
     17 C          13.0263    7.5390    0.0000 C.3     1  UNL1       -0.0558
     18 C           3.8660   -5.5950    0.0000 C.2     1  UNL1       -0.0579
     19 C           5.5981   -6.5950    0.0000 C.3     1  UNL1       -0.0431
     20 C          11.6603    6.9050    0.0000 C.2     1  UNL1       -0.0579
     21 C           9.9282    7.9050    0.0000 C.3     1  UNL1       -0.0432
     22 C           4.7320   -5.0950    0.0000 C.2     1  UNL1       -0.0586
     23 C          10.7942    6.4050    0.0000 C.2     1  UNL1       -0.0586
     24 C           4.7320   -4.0950    0.0000 C.2     1  UNL1       -0.0504
     25 C          10.7942    5.4050    0.0000 C.2     1  UNL1       -0.0504
     26 C           3.8660   -3.5950    0.0000 C.3     1  UNL1       -0.0397
     27 C           5.5981   -3.5950    0.0000 C.2     1  UNL1       -0.0588
     28 C          11.6603    4.9050    0.0000 C.3     1  UNL1       -0.0397
     29 C           9.9282    4.9050    0.0000 C.2     1  UNL1       -0.0588
     30 C           5.5981   -2.5950    0.0000 C.2     1  UNL1       -0.0613
     31 C           9.9282    3.9050    0.0000 C.2     1  UNL1       -0.0613
     32 C           6.4641   -2.0950    0.0000 C.2     1  UNL1       -0.0588
     33 C           9.0622    3.4050    0.0000 C.2     1  UNL1       -0.0588
     34 C           6.4641   -1.0950    0.0000 C.2     1  UNL1       -0.0504
     35 C           9.0622    2.4050    0.0000 C.2     1  UNL1       -0.0504
     36 C           5.5981   -0.5950    0.0000 C.3     1  UNL1       -0.0397
     37 C           7.3301   -0.5950    0.0000 C.2     1  UNL1       -0.0588
     38 C           8.1962    1.9050    0.0000 C.2     1  UNL1       -0.0588
     39 C           9.9282    1.9050    0.0000 C.3     1  UNL1       -0.0397
     40 C           7.3301    0.4050    0.0000 C.2     1  UNL1       -0.0615
     41 C           8.1962    0.9050    0.0000 C.2     1  UNL1       -0.0615
     42 H           2.3894   -7.9873    0.0000 H       1  UNL1        0.0298
     43 H           2.7880   -8.6776    0.0000 H       1  UNL1        0.0298
     44 H           4.4030   -8.9050    0.0000 H       1  UNL1        0.0596
     45 H          13.1369    9.2973    0.0000 H       1  UNL1        0.0274
     46 H          12.7383    9.9876    0.0000 H       1  UNL1        0.0274
     47 H           4.9441   -8.6776    0.0000 H       1  UNL1        0.0335
     48 H           5.3426   -7.9873    0.0000 H       1  UNL1        0.0335
     49 H          12.0588   10.3799    0.0000 H       1  UNL1        0.0269
     50 H          11.2617   10.3799    0.0000 H       1  UNL1        0.0269
     51 H           2.0000   -6.4750    0.0000 H       1  UNL1        0.0238
     52 H           1.3800   -7.0950    0.0000 H       1  UNL1        0.0238
     53 H           2.0000   -7.7150    0.0000 H       1  UNL1        0.0238
     54 H           3.0369   -5.9190    0.0000 H       1  UNL1        0.0238
     55 H           2.1900   -5.6920    0.0000 H       1  UNL1        0.0238
     56 H           1.9631   -6.5390    0.0000 H       1  UNL1        0.0238
     57 H          10.5822    9.9876    0.0000 H       1  UNL1        0.0310
     58 H          10.1836    9.2973    0.0000 H       1  UNL1        0.0310
     59 H          13.5263    7.7850    0.0000 H       1  UNL1        0.0238
     60 H          14.1463    8.4050    0.0000 H       1  UNL1        0.0238
     61 H          13.5263    9.0250    0.0000 H       1  UNL1        0.0238
     62 H          12.4893    7.2290    0.0000 H       1  UNL1        0.0238
     63 H          13.3363    7.0020    0.0000 H       1  UNL1        0.0238
     64 H          13.5632    7.8490    0.0000 H       1  UNL1        0.0238
     65 H           3.3291   -5.2850    0.0000 H       1  UNL1        0.0621
     66 H           5.9081   -7.1319    0.0000 H       1  UNL1        0.0275
     67 H           6.1350   -6.2850    0.0000 H       1  UNL1        0.0275
     68 H           5.2881   -6.0581    0.0000 H       1  UNL1        0.0275
     69 H          12.1972    6.5950    0.0000 H       1  UNL1        0.0621
     70 H           9.6182    8.4419    0.0000 H       1  UNL1        0.0275
     71 H           9.3913    7.5950    0.0000 H       1  UNL1        0.0275
     72 H          10.2382    7.3681    0.0000 H       1  UNL1        0.0275
     73 H           4.4030   -9.9050    0.0000 H       1  UNL1        0.2098
     74 H           5.2690   -5.4050    0.0000 H       1  UNL1        0.0620
     75 H          10.2573    6.7150    0.0000 H       1  UNL1        0.0620
     76 H           4.1760   -3.0581    0.0000 H       1  UNL1        0.0278
     77 H           3.3291   -3.2850    0.0000 H       1  UNL1        0.0278
     78 H           3.5560   -4.1319    0.0000 H       1  UNL1        0.0278
     79 H           6.1350   -3.9050    0.0000 H       1  UNL1        0.0620
     80 H          11.3503    4.3681    0.0000 H       1  UNL1        0.0278
     81 H          12.1972    4.5950    0.0000 H       1  UNL1        0.0278
     82 H          11.9703    5.4419    0.0000 H       1  UNL1        0.0278
     83 H           9.3913    5.2150    0.0000 H       1  UNL1        0.0620
     84 H           5.0611   -2.2850    0.0000 H       1  UNL1        0.0618
     85 H          10.4651    3.5950    0.0000 H       1  UNL1        0.0618
     86 H           7.0010   -2.4050    0.0000 H       1  UNL1        0.0620
     87 H           8.5252    3.7150    0.0000 H       1  UNL1        0.0620
     88 H           5.9081   -0.0581    0.0000 H       1  UNL1        0.0278
     89 H           5.0611   -0.2850    0.0000 H       1  UNL1        0.0278
     90 H           5.2881   -1.1319    0.0000 H       1  UNL1        0.0278
     91 H           7.8671   -0.9050    0.0000 H       1  UNL1        0.0620
     92 H           7.6592    2.2150    0.0000 H       1  UNL1        0.0620
     93 H           9.6182    1.3681    0.0000 H       1  UNL1        0.0278
     94 H          10.4651    1.5950    0.0000 H       1  UNL1        0.0278
     95 H          10.2382    2.4419    0.0000 H       1  UNL1        0.0278
     96 H           6.7932    0.7150    0.0000 H       1  UNL1        0.0618
     97 H           8.7331    0.5950    0.0000 H       1  UNL1        0.0618
@<TRIPOS>BOND
     1     5     1    1
     2     1    73    1
     3     2     3    1
     4     2     6    1
     5     2    12    1
     6     2    13    1
     7     3     5    1
     8     3    42    1
     9     3    43    1
    10     4     7    1
    11     4    11    1
    12     4    16    1
    13     4    17    1
    14     5     8    1
    15     5    44    1
    16     6     9    2
    17     6    18    1
    18     7    10    1
    19     7    45    1
    20     7    46    1
    21     8     9    1
    22     8    47    1
    23     8    48    1
    24     9    19    1
    25    10    14    1
    26    10    49    1
    27    10    50    1
    28    11    15    2
    29    11    20    1
    30    12    51    1
    31    12    52    1
    32    12    53    1
    33    13    54    1
    34    13    55    1
    35    13    56    1
    36    14    15    1
    37    14    57    1
    38    14    58    1
    39    15    21    1
    40    16    59    1
    41    16    60    1
    42    16    61    1
    43    17    62    1
    44    17    63    1
    45    17    64    1
    46    18    22    2
    47    18    65    1
    48    19    66    1
    49    19    67    1
    50    19    68    1
    51    20    23    2
    52    20    69    1
    53    21    70    1
    54    21    71    1
    55    21    72    1
    56    22    24    1
    57    22    74    1
    58    23    25    1
    59    23    75    1
    60    24    26    1
    61    24    27    2
    62    25    28    1
    63    25    29    2
    64    26    76    1
    65    26    77    1
    66    26    78    1
    67    27    30    1
    68    27    79    1
    69    28    80    1
    70    28    81    1
    71    28    82    1
    72    29    31    1
    73    29    83    1
    74    30    32    2
    75    30    84    1
    76    31    33    2
    77    31    85    1
    78    32    34    1
    79    32    86    1
    80    33    35    1
    81    33    87    1
    82    34    36    1
    83    34    37    2
    84    35    38    2
    85    35    39    1
    86    36    88    1
    87    36    89    1
    88    36    90    1
    89    37    40    1
    90    37    91    1
    91    38    41    1
    92    38    92    1
    93    39    93    1
    94    39    94    1
    95    39    95    1
    96    40    41    2
    97    40    96    1
    98    41    97    1
