@<TRIPOS>MOLECULE
IMPHY010344
 30 31 0 0 0
SMALL
GASTEIGER

@<TRIPOS>ATOM
      1 O           2.0000   -0.3450    0.0000 O.3     1  UNL1       -0.3509
      2 O           2.8660   -1.8450    0.0000 O.3     1  UNL1       -0.3667
      3 C           3.7320    0.6550    0.0000 C.3     1  UNL1       -0.0287
      4 C           3.7320   -0.3450    0.0000 C.3     1  UNL1        0.0157
      5 C           4.6783   -0.6497    0.0000 C.3     1  UNL1       -0.0362
      6 C           4.6783    0.9597    0.0000 C.3     1  UNL1       -0.0492
      7 C           2.8660    1.1550    0.0000 C.3     1  UNL1       -0.0170
      8 C           5.2619    0.1550    0.0000 C.3     1  UNL1       -0.0498
      9 C           2.8660   -0.8450    0.0000 C.3     1  UNL1        0.1594
     10 C           2.0000    0.6550    0.0000 C.3     1  UNL1        0.0535
     11 C           4.9889   -1.6002    0.0000 C.3     1  UNL1       -0.0620
     12 C           2.8660    2.1550    0.0000 C.3     1  UNL1       -0.0601
     13 H           3.8220    1.5002    0.0000 H       1  UNL1        0.0308
     14 H           3.8220   -1.1902    0.0000 H       1  UNL1        0.0355
     15 H           5.5180   -0.7816    0.0000 H       1  UNL1        0.0302
     16 H           5.2156    1.2690    0.0000 H       1  UNL1        0.0268
     17 H           4.4272    1.5266    0.0000 H       1  UNL1        0.0268
     18 H           3.4030    1.4650    0.0000 H       1  UNL1        0.0323
     19 H           5.7227   -0.2597    0.0000 H       1  UNL1        0.0268
     20 H           5.7227    0.5697    0.0000 H       1  UNL1        0.0268
     21 H           3.6022   -1.2700    0.0000 H       1  UNL1        0.0910
     22 H           1.7880    1.2376    0.0000 H       1  UNL1        0.0563
     23 H           1.3894    0.5473    0.0000 H       1  UNL1        0.0563
     24 H           4.3996   -1.7929    0.0000 H       1  UNL1        0.0233
     25 H           5.1815   -2.1896    0.0000 H       1  UNL1        0.0233
     26 H           5.5783   -1.4076    0.0000 H       1  UNL1        0.0233
     27 H           3.4860    2.1550    0.0000 H       1  UNL1        0.0233
     28 H           2.8660    2.7750    0.0000 H       1  UNL1        0.0233
     29 H           2.2460    2.1550    0.0000 H       1  UNL1        0.0233
     30 H           2.3291   -2.1550    0.0000 H       1  UNL1        0.2125
@<TRIPOS>BOND
     1     1     9    1
     2     1    10    1
     3     2     9    1
     4     2    30    1
     5     3     4    1
     6     3     6    1
     7     3     7    1
     8     3    13    1
     9     4     5    1
    10     4     9    1
    11     4    14    1
    12     5     8    1
    13     5    11    1
    14     5    15    1
    15     6     8    1
    16     6    16    1
    17     6    17    1
    18     7    10    1
    19     7    12    1
    20     7    18    1
    21     8    19    1
    22     8    20    1
    23     9    21    1
    24    10    22    1
    25    10    23    1
    26    11    24    1
    27    11    25    1
    28    11    26    1
    29    12    27    1
    30    12    28    1
    31    12    29    1
