@<TRIPOS>MOLECULE
IMPHY005535
 40 43 0 0 0
SMALL
GASTEIGER

@<TRIPOS>ATOM
      1 O           8.0944    0.4490    0.0000 O.3     1  UNL1       -0.4838
      2 O           6.4144   -2.8071    0.0000 O.3     1  UNL1       -0.5059
      3 O           4.6660   -2.7725    0.0000 O.2     1  UNL1       -0.2864
      4 N           4.6660    0.2275    0.0000 N.ar    1  UNL1       -0.3423
      5 C           6.4260    0.2621    0.0000 C.ar    1  UNL1        0.0225
      6 C           6.6361    1.2760    0.0000 C.3     1  UNL1        0.0189
      7 C           7.6651    1.3913    0.0000 C.3     1  UNL1        0.1249
      8 C           5.5321   -0.2725    0.0000 C.ar    1  UNL1        0.0633
      9 C           7.3321   -0.2517    0.0000 C.ar    1  UNL1        0.1301
     10 C           5.5321   -1.2725    0.0000 C.ar    1  UNL1        0.0876
     11 C           3.8000   -0.2725    0.0000 C.ar    1  UNL1        0.0529
     12 C           7.3321   -1.2934    0.0000 C.ar    1  UNL1        0.0227
     13 C           6.4260   -1.8072    0.0000 C.ar    1  UNL1        0.1331
     14 C           8.1584    2.2612    0.0000 C.2     1  UNL1       -0.0395
     15 C           3.8000   -1.2725    0.0000 C.ar    1  UNL1        0.0459
     16 C           4.6660   -1.7725    0.0000 C.ar    1  UNL1        0.2006
     17 C           4.6660    1.2275    0.0000 C.3     1  UNL1        0.0124
     18 C           2.9061    0.2621    0.0000 C.ar    1  UNL1       -0.0375
     19 C           2.9061   -1.8072    0.0000 C.ar    1  UNL1       -0.0489
     20 C           9.1584    2.2689    0.0000 C.3     1  UNL1       -0.0406
     21 C           7.6518    3.1233    0.0000 C.2     1  UNL1       -0.0962
     22 C           2.0000   -0.2517    0.0000 C.ar    1  UNL1       -0.0598
     23 C           2.0000   -1.2934    0.0000 C.ar    1  UNL1       -0.0610
     24 H           6.6322    1.8960    0.0000 H       1  UNL1        0.0354
     25 H           6.0191    1.3373    0.0000 H       1  UNL1        0.0354
     26 H           8.2845    1.3639    0.0000 H       1  UNL1        0.0784
     27 H           7.8678   -1.6054    0.0000 H       1  UNL1        0.0691
     28 H           5.2860    1.2275    0.0000 H       1  UNL1        0.0456
     29 H           4.6660    1.8475    0.0000 H       1  UNL1        0.0456
     30 H           4.0460    1.2275    0.0000 H       1  UNL1        0.0456
     31 H           2.9132    0.8821    0.0000 H       1  UNL1        0.0638
     32 H           2.9132   -2.4272    0.0000 H       1  UNL1        0.0625
     33 H           9.1632    1.6489    0.0000 H       1  UNL1        0.0275
     34 H           9.7784    2.2737    0.0000 H       1  UNL1        0.0275
     35 H           9.1536    2.8889    0.0000 H       1  UNL1        0.0275
     36 H           7.9576    3.6626    0.0000 H       1  UNL1        0.0535
     37 H           7.0318    3.1185    0.0000 H       1  UNL1        0.0535
     38 H           1.4643    0.0603    0.0000 H       1  UNL1        0.0618
     39 H           1.4643   -1.6054    0.0000 H       1  UNL1        0.0618
     40 H           6.9478   -3.1233    0.0000 H       1  UNL1        0.2922
@<TRIPOS>BOND
     1     1     7    1
     2     1     9    1
     3     2    13    1
     4     2    40    1
     5     3    16    2
     6     4     8   ar
     7     4    11   ar
     8     4    17    1
     9     5     6    1
    10     5     8   ar
    11     5     9   ar
    12     6     7    1
    13     6    24    1
    14     6    25    1
    15     7    14    1
    16     7    26    1
    17     8    10   ar
    18     9    12   ar
    19    10    13   ar
    20    10    16   ar
    21    11    15   ar
    22    11    18   ar
    23    12    13   ar
    24    12    27    1
    25    14    20    1
    26    14    21    2
    27    15    16   ar
    28    15    19   ar
    29    17    28    1
    30    17    29    1
    31    17    30    1
    32    18    22   ar
    33    18    31    1
    34    19    23   ar
    35    19    32    1
    36    20    33    1
    37    20    34    1
    38    20    35    1
    39    21    36    1
    40    21    37    1
    41    22    23   ar
    42    22    38    1
    43    23    39    1
