@<TRIPOS>MOLECULE
IMPHY013734
 46 51 0 0 0
SMALL
GASTEIGER

@<TRIPOS>ATOM
      1 O           6.2344   -1.0222    0.0000 O.3     1  UNL1       -0.3659
      2 O           8.5149    1.0312    0.0000 O.3     1  UNL1       -0.3659
      3 O           6.3676    1.1162    0.0000 O.3     1  UNL1       -0.3803
      4 O           8.3750   -1.1132    0.0000 O.3     1  UNL1       -0.3803
      5 O           2.5850    0.1555    0.0000 O.3     1  UNL1       -0.4526
      6 O          12.1637   -0.1586    0.0000 O.3     1  UNL1       -0.4526
      7 O           2.5822    1.7650    0.0000 O.3     1  UNL1       -0.4526
      8 O          12.1637   -1.7681    0.0000 O.3     1  UNL1       -0.4526
      9 C           7.0367    0.3730    0.0000 C.3     1  UNL1        0.1525
     10 C           7.7058   -0.3701    0.0000 C.3     1  UNL1        0.1525
     11 C           6.1296   -0.0336    0.0000 C.3     1  UNL1        0.1175
     12 C           8.6194    0.0366    0.0000 C.3     1  UNL1        0.1175
     13 C           7.2066   -1.2297    0.0000 C.3     1  UNL1        0.0830
     14 C           7.5367    1.2391    0.0000 C.3     1  UNL1        0.0830
     15 C           5.2627    0.4649    0.0000 C.ar    1  UNL1       -0.0123
     16 C           9.4854   -0.4634    0.0000 C.ar    1  UNL1       -0.0123
     17 C           4.3976   -0.0366    0.0000 C.ar    1  UNL1       -0.0104
     18 C          10.3514    0.0366    0.0000 C.ar    1  UNL1       -0.0104
     19 C           5.2610    1.4649    0.0000 C.ar    1  UNL1       -0.0523
     20 C           9.4854   -1.4634    0.0000 C.ar    1  UNL1       -0.0523
     21 C           3.5307    0.4619    0.0000 C.ar    1  UNL1        0.1666
     22 C          11.2175   -0.4634    0.0000 C.ar    1  UNL1        0.1666
     23 C           4.3941    1.9634    0.0000 C.ar    1  UNL1       -0.0158
     24 C          10.3514   -1.9634    0.0000 C.ar    1  UNL1       -0.0158
     25 C           3.5290    1.4619    0.0000 C.ar    1  UNL1        0.1662
     26 C          11.2175   -1.4634    0.0000 C.ar    1  UNL1        0.1662
     27 C           2.0000    0.9592    0.0000 C.3     1  UNL1        0.2332
     28 C          12.7473   -0.9634    0.0000 C.3     1  UNL1        0.2332
     29 H           5.6101   -0.3720    0.0000 H       1  UNL1        0.0677
     30 H           9.1394    0.3743    0.0000 H       1  UNL1        0.0677
     31 H           7.0141   -1.8191    0.0000 H       1  UNL1        0.0591
     32 H           7.7725   -1.4830    0.0000 H       1  UNL1        0.0591
     33 H           7.7283    1.8287    0.0000 H       1  UNL1        0.0591
     34 H           6.9703    1.4912    0.0000 H       1  UNL1        0.0591
     35 H           6.5592    1.7058    0.0000 H       1  UNL1        0.2105
     36 H           8.1834   -1.7029    0.0000 H       1  UNL1        0.2105
     37 H           4.3986   -0.6566    0.0000 H       1  UNL1        0.0659
     38 H          10.3514    0.6566    0.0000 H       1  UNL1        0.0659
     39 H           5.7974    1.7758    0.0000 H       1  UNL1        0.0622
     40 H           8.9485   -1.7734    0.0000 H       1  UNL1        0.0622
     41 H           4.3930    2.5834    0.0000 H       1  UNL1        0.0655
     42 H          10.3514   -2.5834    0.0000 H       1  UNL1        0.0655
     43 H           1.5384    1.3732    0.0000 H       1  UNL1        0.1166
     44 H           1.5398    0.5437    0.0000 H       1  UNL1        0.1166
     45 H          13.2082   -1.3781    0.0000 H       1  UNL1        0.1166
     46 H          13.2082   -0.5486    0.0000 H       1  UNL1        0.1166
@<TRIPOS>BOND
     1     1    11    1
     2     1    13    1
     3     2    12    1
     4     2    14    1
     5     9     3    1
     6     3    35    1
     7    10     4    1
     8     4    36    1
     9     5    21    1
    10     5    27    1
    11     6    22    1
    12     6    28    1
    13     7    25    1
    14     7    27    1
    15     8    26    1
    16     8    28    1
    17     9    10    1
    18     9    11    1
    19     9    14    1
    20    10    12    1
    21    10    13    1
    22    11    15    1
    23    11    29    1
    24    12    16    1
    25    12    30    1
    26    13    31    1
    27    13    32    1
    28    14    33    1
    29    14    34    1
    30    15    17   ar
    31    15    19   ar
    32    16    18   ar
    33    16    20   ar
    34    17    21   ar
    35    17    37    1
    36    18    22   ar
    37    18    38    1
    38    19    23   ar
    39    19    39    1
    40    20    24   ar
    41    20    40    1
    42    21    25   ar
    43    22    26   ar
    44    23    25   ar
    45    23    41    1
    46    24    26   ar
    47    24    42    1
    48    27    43    1
    49    27    44    1
    50    28    45    1
    51    28    46    1
