@<TRIPOS>MOLECULE
IMPHY004613
 99 100 0 0 0
SMALL
GASTEIGER

@<TRIPOS>ATOM
      1 O          14.7476    6.9994    0.0000 O.3     1  UNL1       -0.3917
      2 O          10.7942    8.3267    0.0000 O.2     1  UNL1       -0.2921
      3 O           3.8660   -9.6733    0.0000 O.3     1  UNL1       -0.3914
      4 C          13.1954    9.0698    0.0000 C.3     1  UNL1       -0.0201
      5 C          12.5263    8.3267    0.0000 C.3     1  UNL1        0.0377
      6 C          14.1090    8.6631    0.0000 C.3     1  UNL1       -0.0208
      7 C          13.0263    7.4606    0.0000 C.3     1  UNL1       -0.0139
      8 C          14.0044    7.6685    0.0000 C.3     1  UNL1        0.0567
      9 C          13.6021    9.9834    0.0000 C.3     1  UNL1       -0.0588
     10 C          12.4523    9.7389    0.0000 C.3     1  UNL1       -0.0588
     11 C          11.7831    8.9958    0.0000 C.3     1  UNL1       -0.0519
     12 C          11.6603    7.8266    0.0000 C.2     1  UNL1        0.1625
     13 C          11.6603    6.8266    0.0000 C.2     1  UNL1       -0.0184
     14 C          10.7942    6.3266    0.0000 C.2     1  UNL1       -0.0555
     15 C           3.0000   -7.1734    0.0000 C.3     1  UNL1       -0.0076
     16 C           3.0000   -8.1733    0.0000 C.3     1  UNL1       -0.0174
     17 C           3.8660   -8.6733    0.0000 C.3     1  UNL1        0.0597
     18 C          10.7942    5.3266    0.0000 C.2     1  UNL1       -0.0503
     19 C           3.8660   -6.6734    0.0000 C.2     1  UNL1       -0.0426
     20 C           4.7320   -8.1733    0.0000 C.3     1  UNL1       -0.0053
     21 C           4.7320   -7.1734    0.0000 C.2     1  UNL1       -0.0665
     22 C           2.0000   -7.1734    0.0000 C.3     1  UNL1       -0.0557
     23 C           2.5000   -6.3073    0.0000 C.3     1  UNL1       -0.0557
     24 C          11.6603    4.8266    0.0000 C.3     1  UNL1       -0.0397
     25 C           3.8660   -5.6734    0.0000 C.2     1  UNL1       -0.0579
     26 C           5.5981   -6.6734    0.0000 C.3     1  UNL1       -0.0431
     27 C           9.9282    4.8266    0.0000 C.2     1  UNL1       -0.0588
     28 C           4.7320   -5.1734    0.0000 C.2     1  UNL1       -0.0586
     29 C           9.9282    3.8266    0.0000 C.2     1  UNL1       -0.0613
     30 C           4.7320   -4.1734    0.0000 C.2     1  UNL1       -0.0504
     31 C           9.0622    3.3266    0.0000 C.2     1  UNL1       -0.0588
     32 C           3.8660   -3.6734    0.0000 C.3     1  UNL1       -0.0397
     33 C           5.5981   -3.6734    0.0000 C.2     1  UNL1       -0.0588
     34 C           9.0622    2.3266    0.0000 C.2     1  UNL1       -0.0504
     35 C           5.5981   -2.6734    0.0000 C.2     1  UNL1       -0.0613
     36 C           9.9282    1.8266    0.0000 C.3     1  UNL1       -0.0397
     37 C           8.1962    1.8266    0.0000 C.2     1  UNL1       -0.0588
     38 C           6.4641   -2.1734    0.0000 C.2     1  UNL1       -0.0588
     39 C           8.1962    0.8267    0.0000 C.2     1  UNL1       -0.0615
     40 C           6.4641   -1.1733    0.0000 C.2     1  UNL1       -0.0504
     41 C           7.3301   -0.6733    0.0000 C.2     1  UNL1       -0.0588
     42 C           7.3301    0.3267    0.0000 C.2     1  UNL1       -0.0615
     43 C           5.5981   -0.6733    0.0000 C.3     1  UNL1       -0.0397
     44 H          14.7154    8.5342    0.0000 H       1  UNL1        0.0295
     45 H          14.3005    9.2527    0.0000 H       1  UNL1        0.0295
     46 H          12.4599    7.2084    0.0000 H       1  UNL1        0.0300
     47 H          13.2179    6.8710    0.0000 H       1  UNL1        0.0300
     48 H          13.8440    7.0697    0.0000 H       1  UNL1        0.0594
     49 H          14.1685    9.7312    0.0000 H       1  UNL1        0.0235
     50 H          13.8543   10.5497    0.0000 H       1  UNL1        0.0235
     51 H          13.0357   10.2355    0.0000 H       1  UNL1        0.0235
     52 H          12.8671   10.1997    0.0000 H       1  UNL1        0.0235
     53 H          11.9915   10.1538    0.0000 H       1  UNL1        0.0235
     54 H          12.0374    9.2782    0.0000 H       1  UNL1        0.0235
     55 H          12.1980    9.4565    0.0000 H       1  UNL1        0.0239
     56 H          11.3224    9.4106    0.0000 H       1  UNL1        0.0239
     57 H          11.3683    8.5350    0.0000 H       1  UNL1        0.0239
     58 H          15.3372    7.1910    0.0000 H       1  UNL1        0.2098
     59 H          12.1972    6.5166    0.0000 H       1  UNL1        0.0653
     60 H          10.2573    6.6366    0.0000 H       1  UNL1        0.0621
     61 H           2.3894   -8.0657    0.0000 H       1  UNL1        0.0298
     62 H           2.7880   -8.7560    0.0000 H       1  UNL1        0.0298
     63 H           4.4030   -8.9834    0.0000 H       1  UNL1        0.0596
     64 H           4.9441   -8.7560    0.0000 H       1  UNL1        0.0335
     65 H           5.3426   -8.0657    0.0000 H       1  UNL1        0.0335
     66 H           2.0000   -6.5534    0.0000 H       1  UNL1        0.0238
     67 H           1.3800   -7.1734    0.0000 H       1  UNL1        0.0238
     68 H           2.0000   -7.7933    0.0000 H       1  UNL1        0.0238
     69 H           3.0369   -5.9973    0.0000 H       1  UNL1        0.0238
     70 H           2.1900   -5.7704    0.0000 H       1  UNL1        0.0238
     71 H           1.9631   -6.6173    0.0000 H       1  UNL1        0.0238
     72 H          11.3503    4.2897    0.0000 H       1  UNL1        0.0278
     73 H          12.1972    4.5166    0.0000 H       1  UNL1        0.0278
     74 H          11.9703    5.3636    0.0000 H       1  UNL1        0.0278
     75 H           3.3291   -5.3633    0.0000 H       1  UNL1        0.0621
     76 H           5.9081   -7.2103    0.0000 H       1  UNL1        0.0275
     77 H           6.1350   -6.3633    0.0000 H       1  UNL1        0.0275
     78 H           5.2881   -6.1364    0.0000 H       1  UNL1        0.0275
     79 H           9.3913    5.1367    0.0000 H       1  UNL1        0.0620
     80 H           4.4030   -9.9834    0.0000 H       1  UNL1        0.2098
     81 H           5.2690   -5.4834    0.0000 H       1  UNL1        0.0620
     82 H          10.4651    3.5166    0.0000 H       1  UNL1        0.0618
     83 H           8.5252    3.6366    0.0000 H       1  UNL1        0.0620
     84 H           4.1760   -3.1364    0.0000 H       1  UNL1        0.0278
     85 H           3.3291   -3.3634    0.0000 H       1  UNL1        0.0278
     86 H           3.5560   -4.2103    0.0000 H       1  UNL1        0.0278
     87 H           6.1350   -3.9834    0.0000 H       1  UNL1        0.0620
     88 H           5.0611   -2.3634    0.0000 H       1  UNL1        0.0618
     89 H           9.6182    1.2897    0.0000 H       1  UNL1        0.0278
     90 H          10.4651    1.5167    0.0000 H       1  UNL1        0.0278
     91 H          10.2382    2.3636    0.0000 H       1  UNL1        0.0278
     92 H           7.6592    2.1366    0.0000 H       1  UNL1        0.0620
     93 H           7.0010   -2.4834    0.0000 H       1  UNL1        0.0620
     94 H           8.7331    0.5167    0.0000 H       1  UNL1        0.0618
     95 H           7.8671   -0.9833    0.0000 H       1  UNL1        0.0620
     96 H           6.7932    0.6367    0.0000 H       1  UNL1        0.0618
     97 H           5.9081   -0.1364    0.0000 H       1  UNL1        0.0278
     98 H           5.0611   -0.3633    0.0000 H       1  UNL1        0.0278
     99 H           5.2881   -1.2103    0.0000 H       1  UNL1        0.0278
@<TRIPOS>BOND
     1     8     1    1
     2     1    58    1
     3     2    12    2
     4    17     3    1
     5     3    80    1
     6     4     5    1
     7     4     6    1
     8     4     9    1
     9     4    10    1
    10     5     7    1
    11     5    11    1
    12     5    12    1
    13     6     8    1
    14     6    44    1
    15     6    45    1
    16     7     8    1
    17     7    46    1
    18     7    47    1
    19     8    48    1
    20     9    49    1
    21     9    50    1
    22     9    51    1
    23    10    52    1
    24    10    53    1
    25    10    54    1
    26    11    55    1
    27    11    56    1
    28    11    57    1
    29    12    13    1
    30    13    14    2
    31    13    59    1
    32    14    18    1
    33    14    60    1
    34    15    16    1
    35    15    19    1
    36    15    22    1
    37    15    23    1
    38    16    17    1
    39    16    61    1
    40    16    62    1
    41    17    20    1
    42    17    63    1
    43    18    24    1
    44    18    27    2
    45    19    21    2
    46    19    25    1
    47    20    21    1
    48    20    64    1
    49    20    65    1
    50    21    26    1
    51    22    66    1
    52    22    67    1
    53    22    68    1
    54    23    69    1
    55    23    70    1
    56    23    71    1
    57    24    72    1
    58    24    73    1
    59    24    74    1
    60    25    28    2
    61    25    75    1
    62    26    76    1
    63    26    77    1
    64    26    78    1
    65    27    29    1
    66    27    79    1
    67    28    30    1
    68    28    81    1
    69    29    31    2
    70    29    82    1
    71    30    32    1
    72    30    33    2
    73    31    34    1
    74    31    83    1
    75    32    84    1
    76    32    85    1
    77    32    86    1
    78    33    35    1
    79    33    87    1
    80    34    36    1
    81    34    37    2
    82    35    38    2
    83    35    88    1
    84    36    89    1
    85    36    90    1
    86    36    91    1
    87    37    39    1
    88    37    92    1
    89    38    40    1
    90    38    93    1
    91    39    42    2
    92    39    94    1
    93    40    41    2
    94    40    43    1
    95    41    42    1
    96    41    95    1
    97    42    96    1
    98    43    97    1
    99    43    98    1
   100    43    99    1
