@<TRIPOS>MOLECULE
IMPHY012807
 41 42 0 0 0
SMALL
GASTEIGER

@<TRIPOS>ATOM
      1 O           3.4030    1.5000    0.0000 O.2     1  UNL1       -0.2923
      2 O           2.5369   -1.0000    0.0000 O.3     1  UNL1       -0.3844
      3 C           6.0010   -0.0000    0.0000 C.3     1  UNL1       -0.0075
      4 C           6.0010    1.0000    0.0000 C.3     1  UNL1       -0.0249
      5 C           6.8950   -0.5347    0.0000 C.3     1  UNL1       -0.0347
      6 C           6.8950    1.5346    0.0000 C.3     1  UNL1       -0.0490
      7 C           7.8010   -0.0208    0.0000 C.3     1  UNL1       -0.0497
      8 C           7.8010    1.0208    0.0000 C.3     1  UNL1       -0.0525
      9 C           5.1350    1.5000    0.0000 C.3     1  UNL1        0.0138
     10 C           5.1350   -0.5000    0.0000 C.2     1  UNL1       -0.0684
     11 C           6.0010   -1.0000    0.0000 C.3     1  UNL1       -0.0556
     12 C           4.2690   -0.0000    0.0000 C.2     1  UNL1        0.0224
     13 C           6.8834   -1.5346    0.0000 C.3     1  UNL1       -0.0616
     14 C           4.2690    1.0000    0.0000 C.2     1  UNL1        0.1619
     15 C           3.4030   -0.5000    0.0000 C.3     1  UNL1        0.0883
     16 C           3.9030   -1.3661    0.0000 C.3     1  UNL1       -0.0320
     17 C           2.9030    0.3660    0.0000 C.3     1  UNL1       -0.0320
     18 H           5.9945    1.8499    0.0000 H       1  UNL1        0.0313
     19 H           7.4289   -0.8499    0.0000 H       1  UNL1        0.0306
     20 H           7.2886    2.0136    0.0000 H       1  UNL1        0.0268
     21 H           6.4904    2.0044    0.0000 H       1  UNL1        0.0268
     22 H           8.0101   -0.6045    0.0000 H       1  UNL1        0.0268
     23 H           8.4119    0.0852    0.0000 H       1  UNL1        0.0268
     24 H           8.4119    0.9147    0.0000 H       1  UNL1        0.0265
     25 H           8.0101    1.6045    0.0000 H       1  UNL1        0.0265
     26 H           5.5335    1.9749    0.0000 H       1  UNL1        0.0348
     27 H           4.7365    1.9749    0.0000 H       1  UNL1        0.0348
     28 H           5.1350   -1.1200    0.0000 H       1  UNL1        0.0582
     29 H           5.3810   -1.0000    0.0000 H       1  UNL1        0.0238
     30 H           6.0010   -1.6200    0.0000 H       1  UNL1        0.0238
     31 H           6.6210   -1.0000    0.0000 H       1  UNL1        0.0238
     32 H           6.2635   -1.5275    0.0000 H       1  UNL1        0.0233
     33 H           6.8762   -2.1546    0.0000 H       1  UNL1        0.0233
     34 H           7.5034   -1.5418    0.0000 H       1  UNL1        0.0233
     35 H           3.3660   -1.6761    0.0000 H       1  UNL1        0.0260
     36 H           4.2130   -1.9030    0.0000 H       1  UNL1        0.0260
     37 H           4.4399   -1.0561    0.0000 H       1  UNL1        0.0260
     38 H           3.4399    0.6760    0.0000 H       1  UNL1        0.0260
     39 H           2.5930    0.9029    0.0000 H       1  UNL1        0.0260
     40 H           2.3660    0.0560    0.0000 H       1  UNL1        0.0260
     41 H           2.0000   -0.6900    0.0000 H       1  UNL1        0.2106
@<TRIPOS>BOND
     1     1    14    2
     2     2    15    1
     3     2    41    1
     4     3     4    1
     5     3     5    1
     6     3    10    1
     7     3    11    1
     8     4     6    1
     9     4     9    1
    10     4    18    1
    11     5     7    1
    12     5    13    1
    13     5    19    1
    14     6     8    1
    15     6    20    1
    16     6    21    1
    17     7     8    1
    18     7    22    1
    19     7    23    1
    20     8    24    1
    21     8    25    1
    22     9    14    1
    23     9    26    1
    24     9    27    1
    25    10    12    2
    26    10    28    1
    27    11    29    1
    28    11    30    1
    29    11    31    1
    30    12    14    1
    31    12    15    1
    32    13    32    1
    33    13    33    1
    34    13    34    1
    35    15    16    1
    36    15    17    1
    37    16    35    1
    38    16    36    1
    39    16    37    1
    40    17    38    1
    41    17    39    1
    42    17    40    1
