@<TRIPOS>MOLECULE
IMPHY016609
 42 42 0 0 0
SMALL
GASTEIGER

@<TRIPOS>ATOM
      1 C           4.5981    1.2500    0.0000 C.3     1  UNL1       -0.0531
      2 C           4.5981    0.2500    0.0000 C.3     1  UNL1       -0.0530
      3 C           5.4641    1.7500    0.0000 C.3     1  UNL1       -0.0531
      4 C           3.7320   -0.2500    0.0000 C.3     1  UNL1       -0.0528
      5 C           5.4641    2.7500    0.0000 C.3     1  UNL1       -0.0531
      6 C           3.7320   -1.2500    0.0000 C.3     1  UNL1       -0.0491
      7 C           6.3301    3.2500    0.0000 C.3     1  UNL1       -0.0533
      8 C           2.8660   -1.7500    0.0000 C.3     1  UNL1       -0.0277
      9 C           6.3301    4.2500    0.0000 C.3     1  UNL1       -0.0559
     10 C           2.8660   -2.7500    0.0000 C.ar    1  UNL1       -0.0474
     11 C           7.1962    4.7500    0.0000 C.3     1  UNL1       -0.0653
     12 C           2.0000   -3.2500    0.0000 C.ar    1  UNL1       -0.0586
     13 C           3.7320   -3.2500    0.0000 C.ar    1  UNL1       -0.0586
     14 C           2.0000   -4.2500    0.0000 C.ar    1  UNL1       -0.0615
     15 C           3.7320   -4.2500    0.0000 C.ar    1  UNL1       -0.0615
     16 C           2.8660   -4.7500    0.0000 C.ar    1  UNL1       -0.0617
     17 H           4.3860    1.8326    0.0000 H       1  UNL1        0.0265
     18 H           3.9875    1.1423    0.0000 H       1  UNL1        0.0265
     19 H           4.8101   -0.3326    0.0000 H       1  UNL1        0.0265
     20 H           5.2087    0.3577    0.0000 H       1  UNL1        0.0265
     21 H           5.6762    1.1674    0.0000 H       1  UNL1        0.0265
     22 H           6.0747    1.8577    0.0000 H       1  UNL1        0.0265
     23 H           3.5200    0.3326    0.0000 H       1  UNL1        0.0265
     24 H           3.1215   -0.3577    0.0000 H       1  UNL1        0.0265
     25 H           5.2520    3.3326    0.0000 H       1  UNL1        0.0265
     26 H           4.8535    2.6423    0.0000 H       1  UNL1        0.0265
     27 H           3.9441   -1.8326    0.0000 H       1  UNL1        0.0268
     28 H           4.3426   -1.1423    0.0000 H       1  UNL1        0.0268
     29 H           6.5422    2.6674    0.0000 H       1  UNL1        0.0265
     30 H           6.9407    3.3577    0.0000 H       1  UNL1        0.0265
     31 H           2.6540   -1.1674    0.0000 H       1  UNL1        0.0313
     32 H           2.2554   -1.8577    0.0000 H       1  UNL1        0.0313
     33 H           6.1181    4.8326    0.0000 H       1  UNL1        0.0263
     34 H           5.7196    4.1423    0.0000 H       1  UNL1        0.0263
     35 H           7.5062    4.2131    0.0000 H       1  UNL1        0.0230
     36 H           7.7331    5.0600    0.0000 H       1  UNL1        0.0230
     37 H           6.8862    5.2869    0.0000 H       1  UNL1        0.0230
     38 H           1.4631   -2.9400    0.0000 H       1  UNL1        0.0620
     39 H           4.2690   -2.9400    0.0000 H       1  UNL1        0.0620
     40 H           1.4631   -4.5600    0.0000 H       1  UNL1        0.0618
     41 H           4.2690   -4.5600    0.0000 H       1  UNL1        0.0618
     42 H           2.8660   -5.3700    0.0000 H       1  UNL1        0.0618
@<TRIPOS>BOND
     1     1     2    1
     2     1     3    1
     3     1    17    1
     4     1    18    1
     5     2     4    1
     6     2    19    1
     7     2    20    1
     8     3     5    1
     9     3    21    1
    10     3    22    1
    11     4     6    1
    12     4    23    1
    13     4    24    1
    14     5     7    1
    15     5    25    1
    16     5    26    1
    17     6     8    1
    18     6    27    1
    19     6    28    1
    20     7     9    1
    21     7    29    1
    22     7    30    1
    23     8    10    1
    24     8    31    1
    25     8    32    1
    26     9    11    1
    27     9    33    1
    28     9    34    1
    29    10    12   ar
    30    10    13   ar
    31    11    35    1
    32    11    36    1
    33    11    37    1
    34    12    14   ar
    35    12    38    1
    36    13    15   ar
    37    13    39    1
    38    14    16   ar
    39    14    40    1
    40    15    16   ar
    41    15    41    1
    42    16    42    1
