@<TRIPOS>MOLECULE
IMPHY007227
 19 20 0 0 0
SMALL
GASTEIGER

@<TRIPOS>ATOM
      1 N           4.6783   -0.9853    0.0000 N.ar    1  UNL1       -0.3604
      2 C           3.7320    0.3194    0.0000 C.ar    1  UNL1        0.0026
      3 C           3.7320   -0.6806    0.0000 C.ar    1  UNL1        0.0467
      4 C           4.6783    0.6241    0.0000 C.ar    1  UNL1       -0.0254
      5 C           5.2619   -0.1806    0.0000 C.ar    1  UNL1        0.0056
      6 C           2.8660    0.8194    0.0000 C.ar    1  UNL1       -0.0523
      7 C           2.8660   -1.1806    0.0000 C.ar    1  UNL1       -0.0378
      8 C           4.9889    1.5747    0.0000 C.3     1  UNL1       -0.0377
      9 C           2.0000    0.3194    0.0000 C.ar    1  UNL1       -0.0611
     10 C           2.0000   -0.6806    0.0000 C.ar    1  UNL1       -0.0598
     11 H           4.8709   -1.5747    0.0000 H       1  UNL1        0.1653
     12 H           5.8819   -0.1806    0.0000 H       1  UNL1        0.0810
     13 H           2.8660    1.4394    0.0000 H       1  UNL1        0.0624
     14 H           2.8660   -1.8006    0.0000 H       1  UNL1        0.0638
     15 H           5.5783    1.3820    0.0000 H       1  UNL1        0.0278
     16 H           5.1815    2.1640    0.0000 H       1  UNL1        0.0278
     17 H           4.3996    1.7673    0.0000 H       1  UNL1        0.0278
     18 H           1.4631    0.6294    0.0000 H       1  UNL1        0.0618
     19 H           1.4631   -0.9906    0.0000 H       1  UNL1        0.0618
@<TRIPOS>BOND
     1     1     3   ar
     2     1     5   ar
     3     1    11    1
     4     2     3   ar
     5     2     4   ar
     6     2     6   ar
     7     3     7   ar
     8     4     5   ar
     9     4     8    1
    10     5    12    1
    11     6     9   ar
    12     6    13    1
    13     7    10   ar
    14     7    14    1
    15     8    15    1
    16     8    16    1
    17     8    17    1
    18     9    10   ar
    19     9    18    1
    20    10    19    1
