@<TRIPOS>MOLECULE
IMPHY002546
 19 18 0 0 0
SMALL
GASTEIGER

@<TRIPOS>ATOM
      1 O           5.4641    0.7500    0.0000 O.3     1  UNL1       -0.4644
      2 O           2.8660   -0.7500    0.0000 O.2     1  UNL1       -0.2976
      3 O           6.3301   -0.7500    0.0000 O.2     1  UNL1       -0.2512
      4 C           3.7320    0.7500    0.0000 C.3     1  UNL1        0.0398
      5 C           4.5981    0.2500    0.0000 C.3     1  UNL1        0.0991
      6 C           2.8660    0.2500    0.0000 C.2     1  UNL1        0.1335
      7 C           2.0000    0.7500    0.0000 C.3     1  UNL1       -0.0059
      8 C           6.3301    0.2500    0.0000 C.2     1  UNL1        0.3040
      9 C           7.1962    0.7500    0.0000 C.3     1  UNL1        0.0332
     10 H           4.1306    1.2250    0.0000 H       1  UNL1        0.0375
     11 H           3.3335    1.2250    0.0000 H       1  UNL1        0.0375
     12 H           4.1996   -0.2249    0.0000 H       1  UNL1        0.0701
     13 H           4.9966   -0.2249    0.0000 H       1  UNL1        0.0701
     14 H           2.3100    1.2869    0.0000 H       1  UNL1        0.0306
     15 H           1.4631    1.0600    0.0000 H       1  UNL1        0.0306
     16 H           1.6900    0.2131    0.0000 H       1  UNL1        0.0306
     17 H           7.5062    0.2131    0.0000 H       1  UNL1        0.0342
     18 H           7.7331    1.0600    0.0000 H       1  UNL1        0.0342
     19 H           6.8862    1.2869    0.0000 H       1  UNL1        0.0342
@<TRIPOS>BOND
     1     1     5    1
     2     1     8    1
     3     2     6    2
     4     3     8    2
     5     4     5    1
     6     4     6    1
     7     4    10    1
     8     4    11    1
     9     5    12    1
    10     5    13    1
    11     6     7    1
    12     7    14    1
    13     7    15    1
    14     7    16    1
    15     8     9    1
    16     9    17    1
    17     9    18    1
    18     9    19    1
