@<TRIPOS>MOLECULE
IMPHY002813
 53 57 0 0 0
SMALL
GASTEIGER

@<TRIPOS>ATOM
      1 O           6.0427   -0.6444    0.0000 O.3     1  UNL1       -0.4805
      2 O           6.9608    1.9040    0.0000 O.3     1  UNL1       -0.4877
      3 O           4.3107    1.3556    0.0000 O.3     1  UNL1       -0.3728
      4 O           4.5204   -3.7242    0.0000 O.3     1  UNL1       -0.4837
      5 O           3.3259    0.5292    0.0000 O.2     1  UNL1       -0.2882
      6 O           2.5405   -0.6413    0.0000 O.3     1  UNL1       -0.5058
      7 O           3.3202    3.9925    0.0000 O.3     1  UNL1       -0.4914
      8 O           5.1236    5.0523    0.0000 O.3     1  UNL1       -0.4913
      9 C           5.1767    0.8556    0.0000 C.3     1  UNL1        0.1969
     10 C           6.0427    0.3556    0.0000 C.3     1  UNL1        0.1739
     11 C           5.1606    1.8971    0.0000 C.ar    1  UNL1        0.0405
     12 C           4.3107    0.3556    0.0000 C.2     1  UNL1        0.2099
     13 C           5.1767   -1.1444    0.0000 C.ar    1  UNL1        0.1421
     14 C           6.9527    0.8624    0.0000 C.3     1  UNL1        0.1299
     15 C           4.3107   -0.6444    0.0000 C.ar    1  UNL1        0.1042
     16 C           5.1928   -2.1859    0.0000 C.ar    1  UNL1        0.0406
     17 C           5.9658   -2.8748    0.0000 C.3     1  UNL1        0.0204
     18 C           6.0587    2.4248    0.0000 C.ar    1  UNL1        0.1308
     19 C           5.5511   -3.8236    0.0000 C.3     1  UNL1        0.1249
     20 C           4.2947   -2.7137    0.0000 C.ar    1  UNL1        0.1317
     21 C           3.4007   -1.1513    0.0000 C.ar    1  UNL1        0.1344
     22 C           4.2087    2.4177    0.0000 C.ar    1  UNL1       -0.0064
     23 C           3.3926   -2.1929    0.0000 C.ar    1  UNL1        0.0228
     24 C           6.0670    3.5098    0.0000 C.ar    1  UNL1        0.0258
     25 C           6.0578   -4.6858    0.0000 C.2     1  UNL1       -0.0395
     26 C           4.1920    3.5026    0.0000 C.ar    1  UNL1        0.1621
     27 C           5.1274    4.0523    0.0000 C.ar    1  UNL1        0.1650
     28 C           5.5645   -5.5556    0.0000 C.3     1  UNL1       -0.0406
     29 C           7.0577   -4.6781    0.0000 C.2     1  UNL1       -0.0962
     30 C           3.3087    4.9925    0.0000 C.3     1  UNL1        0.0790
     31 C           5.9876    5.5556    0.0000 C.3     1  UNL1        0.0790
     32 H           6.5772    0.0415    0.0000 H       1  UNL1        0.0805
     33 H           7.1573    0.2771    0.0000 H       1  UNL1        0.0735
     34 H           7.5644    0.9638    0.0000 H       1  UNL1        0.0735
     35 H           6.5047   -3.1815    0.0000 H       1  UNL1        0.0355
     36 H           6.3274   -2.3712    0.0000 H       1  UNL1        0.0355
     37 H           5.2177   -4.3464    0.0000 H       1  UNL1        0.0784
     38 H           3.6778    2.0974    0.0000 H       1  UNL1        0.0660
     39 H           3.7281    1.5677    0.0000 H       1  UNL1        0.2114
     40 H           2.8545   -2.5008    0.0000 H       1  UNL1        0.0691
     41 H           6.6052    3.8177    0.0000 H       1  UNL1        0.0692
     42 H           5.0252   -5.2498    0.0000 H       1  UNL1        0.0275
     43 H           5.2586   -6.0950    0.0000 H       1  UNL1        0.0275
     44 H           6.1038   -5.8615    0.0000 H       1  UNL1        0.0275
     45 H           2.0000   -0.9450    0.0000 H       1  UNL1        0.2922
     46 H           7.3719   -5.2126    0.0000 H       1  UNL1        0.0535
     47 H           7.3636   -4.1388    0.0000 H       1  UNL1        0.0535
     48 H           3.9286    4.9996    0.0000 H       1  UNL1        0.0660
     49 H           3.3015    5.6124    0.0000 H       1  UNL1        0.0660
     50 H           2.6887    4.9853    0.0000 H       1  UNL1        0.0660
     51 H           6.2997    5.0199    0.0000 H       1  UNL1        0.0660
     52 H           6.5234    5.8677    0.0000 H       1  UNL1        0.0660
     53 H           5.6756    6.0914    0.0000 H       1  UNL1        0.0660
@<TRIPOS>BOND
     1     1    10    1
     2     1    13    1
     3     2    14    1
     4     2    18    1
     5     3     9    1
     6     3    39    1
     7     4    19    1
     8     4    20    1
     9     5    12    2
    10     6    21    1
    11     6    45    1
    12     7    26    1
    13     7    30    1
    14     8    27    1
    15     8    31    1
    16     9    10    1
    17     9    11    1
    18     9    12    1
    19    10    14    1
    20    10    32    1
    21    11    18   ar
    22    11    22   ar
    23    12    15    1
    24    13    15   ar
    25    13    16   ar
    26    14    33    1
    27    14    34    1
    28    15    21   ar
    29    16    17    1
    30    16    20   ar
    31    17    19    1
    32    17    35    1
    33    17    36    1
    34    18    24   ar
    35    19    25    1
    36    19    37    1
    37    20    23   ar
    38    21    23   ar
    39    22    26   ar
    40    22    38    1
    41    23    40    1
    42    24    27   ar
    43    24    41    1
    44    25    28    1
    45    25    29    2
    46    26    27   ar
    47    28    42    1
    48    28    43    1
    49    28    44    1
    50    29    46    1
    51    29    47    1
    52    30    48    1
    53    30    49    1
    54    30    50    1
    55    31    51    1
    56    31    52    1
    57    31    53    1
