@<TRIPOS>MOLECULE
IMPHY008941
 47 49 0 0 0
SMALL
GASTEIGER

@<TRIPOS>ATOM
      1 O           8.0901   -0.1743    0.0000 O.2     1  UNL1       -0.4544
      2 O           6.3301    2.8604    0.0000 O.3     1  UNL1       -0.5055
      3 O           4.5981   -0.1396    0.0000 O.3     1  UNL1       -0.5062
      4 O           8.0785    2.8950    0.0000 O.2     1  UNL1       -0.2869
      5 O          10.7166   -2.6671    0.0000 O.3     1  UNL1       -0.4914
      6 O          12.4525   -1.6738    0.0000 O.3     1  UNL1       -0.5033
      7 C           5.4641    1.3604    0.0000 C.ar    1  UNL1        0.0400
      8 C           7.1962    1.3604    0.0000 C.ar    1  UNL1        0.1057
      9 C           7.1962    0.3604    0.0000 C.ar    1  UNL1        0.1463
     10 C           6.3301    1.8604    0.0000 C.ar    1  UNL1        0.1381
     11 C           4.5981    1.8604    0.0000 C.3     1  UNL1       -0.0023
     12 C           5.4641    0.3604    0.0000 C.ar    1  UNL1        0.1273
     13 C           6.3301   -0.1396    0.0000 C.ar    1  UNL1        0.0234
     14 C           8.9962    0.3396    0.0000 C.ar    1  UNL1        0.1393
     15 C           8.0901    1.8951    0.0000 C.ar    1  UNL1        0.1966
     16 C           8.9962    1.3812    0.0000 C.ar    1  UNL1        0.0288
     17 C           9.8602   -0.1637    0.0000 C.ar    1  UNL1        0.0211
     18 C           3.7320    1.3604    0.0000 C.2     1  UNL1       -0.0807
     19 C           2.8660    1.8604    0.0000 C.2     1  UNL1       -0.0793
     20 C           9.8564   -1.1637    0.0000 C.ar    1  UNL1       -0.0057
     21 C          10.7282    0.3329    0.0000 C.ar    1  UNL1       -0.0474
     22 C          10.7205   -1.6671    0.0000 C.ar    1  UNL1        0.1619
     23 C          11.5923   -0.1704    0.0000 C.ar    1  UNL1       -0.0159
     24 C          11.5884   -1.1704    0.0000 C.ar    1  UNL1        0.1585
     25 C           2.0000    1.3604    0.0000 C.3     1  UNL1       -0.0440
     26 C           2.8660    2.8604    0.0000 C.3     1  UNL1       -0.0440
     27 C          11.5807   -3.1704    0.0000 C.3     1  UNL1        0.0790
     28 H           4.9966    2.3354    0.0000 H       1  UNL1        0.0358
     29 H           4.1996    2.3354    0.0000 H       1  UNL1        0.0358
     30 H           6.3301   -0.7596    0.0000 H       1  UNL1        0.0691
     31 H           9.5319    1.6933    0.0000 H       1  UNL1        0.0693
     32 H           3.7320    0.7404    0.0000 H       1  UNL1        0.0575
     33 H           9.3183   -1.4717    0.0000 H       1  UNL1        0.0662
     34 H          10.7306    0.9529    0.0000 H       1  UNL1        0.0626
     35 H           5.7932    3.1704    0.0000 H       1  UNL1        0.2922
     36 H          12.1304    0.1375    0.0000 H       1  UNL1        0.0655
     37 H           4.5981   -0.7596    0.0000 H       1  UNL1        0.2921
     38 H           3.4860    2.8604    0.0000 H       1  UNL1        0.0274
     39 H           2.8660    3.4804    0.0000 H       1  UNL1        0.0274
     40 H           2.2460    2.8604    0.0000 H       1  UNL1        0.0274
     41 H           1.6900    1.8973    0.0000 H       1  UNL1        0.0274
     42 H           1.4631    1.0504    0.0000 H       1  UNL1        0.0274
     43 H           2.3100    0.8235    0.0000 H       1  UNL1        0.0274
     44 H          12.9907   -1.3658    0.0000 H       1  UNL1        0.2923
     45 H          11.2687   -3.7061    0.0000 H       1  UNL1        0.0660
     46 H          12.1165   -3.4825    0.0000 H       1  UNL1        0.0660
     47 H          11.8928   -2.6347    0.0000 H       1  UNL1        0.0660
@<TRIPOS>BOND
     1     1     9   ar
     2     1    14   ar
     3     2    10    1
     4     2    35    1
     5     3    12    1
     6     3    37    1
     7     4    15    2
     8     5    22    1
     9     5    27    1
    10     6    24    1
    11     6    44    1
    12     7    10   ar
    13     7    11    1
    14     7    12   ar
    15     8     9   ar
    16     8    10   ar
    17     8    15   ar
    18     9    13   ar
    19    11    18    1
    20    11    28    1
    21    11    29    1
    22    12    13   ar
    23    13    30    1
    24    14    16   ar
    25    14    17    1
    26    15    16   ar
    27    16    31    1
    28    17    20   ar
    29    17    21   ar
    30    18    19    2
    31    18    32    1
    32    19    25    1
    33    19    26    1
    34    20    22   ar
    35    20    33    1
    36    21    23   ar
    37    21    34    1
    38    22    24   ar
    39    23    24   ar
    40    23    36    1
    41    25    41    1
    42    25    42    1
    43    25    43    1
    44    26    38    1
    45    26    39    1
    46    26    40    1
    47    27    45    1
    48    27    46    1
    49    27    47    1
