@<TRIPOS>MOLECULE
IMPHY012184
 33 34 0 0 0
SMALL
GASTEIGER

@<TRIPOS>ATOM
      1 S           5.5981   -2.2500    0.0000 S.O2    1  UNL1        0.0317
      2 S           3.0000    2.2500    0.0000 S.O2    1  UNL1        0.0317
      3 O           5.0981   -3.1160    0.0000 O.2     1  UNL1       -0.1581
      4 O           6.0981   -3.1160    0.0000 O.2     1  UNL1       -0.1581
      5 O           2.5000    3.1160    0.0000 O.2     1  UNL1       -0.1581
      6 O           2.0000    2.2500    0.0000 O.2     1  UNL1       -0.1581
      7 N           5.5981   -0.2500    0.0000 N.3     1  UNL1       -0.2739
      8 N           4.7320    1.2500    0.0000 N.3     1  UNL1       -0.2739
      9 N           6.4641   -1.7500    0.0000 N.3     1  UNL1       -0.1802
     10 N           3.0000    1.2500    0.0000 N.3     1  UNL1       -0.1802
     11 C           5.5981    0.7500    0.0000 C.3     1  UNL1        0.0543
     12 C           4.7320   -0.7500    0.0000 C.3     1  UNL1        0.0222
     13 C           4.7320    2.2500    0.0000 C.3     1  UNL1        0.0222
     14 C           6.4641   -0.7500    0.0000 C.3     1  UNL1        0.0701
     15 C           3.8660    0.7500    0.0000 C.3     1  UNL1        0.0701
     16 C           4.7320   -1.7500    0.0000 C.3     1  UNL1        0.0945
     17 C           3.8660    2.7500    0.0000 C.3     1  UNL1        0.0945
     18 H           6.2087    0.6423    0.0000 H       1  UNL1        0.0596
     19 H           5.8101    1.3326    0.0000 H       1  UNL1        0.0596
     20 H           4.5200   -0.1674    0.0000 H       1  UNL1        0.0444
     21 H           4.1215   -0.8577    0.0000 H       1  UNL1        0.0444
     22 H           5.3426    2.1423    0.0000 H       1  UNL1        0.0444
     23 H           4.9441    2.8326    0.0000 H       1  UNL1        0.0444
     24 H           7.0747   -0.8577    0.0000 H       1  UNL1        0.0609
     25 H           6.6762   -0.1674    0.0000 H       1  UNL1        0.0609
     26 H           3.4675    0.2751    0.0000 H       1  UNL1        0.0609
     27 H           4.2646    0.2751    0.0000 H       1  UNL1        0.0609
     28 H           4.1215   -1.6423    0.0000 H       1  UNL1        0.0528
     29 H           4.5200   -2.3326    0.0000 H       1  UNL1        0.0528
     30 H           4.2646    3.2250    0.0000 H       1  UNL1        0.0528
     31 H           3.4675    3.2250    0.0000 H       1  UNL1        0.0528
     32 H           7.0010   -2.0600    0.0000 H       1  UNL1        0.1491
     33 H           2.4631    0.9400    0.0000 H       1  UNL1        0.1491
@<TRIPOS>BOND
     1     1     3    2
     2     1     4    2
     3     1     9    1
     4     1    16    1
     5     2     5    2
     6     2     6    2
     7     2    10    1
     8     2    17    1
     9     7    11    1
    10     7    12    1
    11     7    14    1
    12     8    11    1
    13     8    13    1
    14     8    15    1
    15     9    14    1
    16     9    32    1
    17    10    15    1
    18    10    33    1
    19    11    18    1
    20    11    19    1
    21    12    16    1
    22    12    20    1
    23    12    21    1
    24    13    17    1
    25    13    22    1
    26    13    23    1
    27    14    24    1
    28    14    25    1
    29    15    26    1
    30    15    27    1
    31    16    28    1
    32    16    29    1
    33    17    30    1
    34    17    31    1
