@<TRIPOS>MOLECULE
IMPHY008040
 42 46 0 0 0
SMALL
GASTEIGER

@<TRIPOS>ATOM
      1 O           8.1507    3.1922    0.0000 O.3     1  UNL1       -0.3620
      2 O           8.0944    0.3801    0.0000 O.3     1  UNL1       -0.4850
      3 O           9.6517    3.0698    0.0000 O.3     1  UNL1       -0.3920
      4 O           6.4144   -2.8761    0.0000 O.3     1  UNL1       -0.5059
      5 O           4.6660   -2.8414    0.0000 O.2     1  UNL1       -0.2864
      6 N           4.6660    0.1585    0.0000 N.ar    1  UNL1       -0.3423
      7 C           8.1584    2.1923    0.0000 C.3     1  UNL1        0.1523
      8 C           7.6651    1.3224    0.0000 C.3     1  UNL1        0.1374
      9 C           7.2886    2.6856    0.0000 C.3     1  UNL1        0.0834
     10 C           6.6361    1.2071    0.0000 C.3     1  UNL1        0.0179
     11 C           9.1584    2.2000    0.0000 C.3     1  UNL1        0.0789
     12 C           6.4260    0.1932    0.0000 C.ar    1  UNL1        0.0222
     13 C           7.3321   -0.3206    0.0000 C.ar    1  UNL1        0.1298
     14 C           5.5321   -0.3415    0.0000 C.ar    1  UNL1        0.0633
     15 C           5.5321   -1.3414    0.0000 C.ar    1  UNL1        0.0876
     16 C           7.3321   -1.3623    0.0000 C.ar    1  UNL1        0.0227
     17 C           6.4260   -1.8761    0.0000 C.ar    1  UNL1        0.1331
     18 C           3.8000   -0.3415    0.0000 C.ar    1  UNL1        0.0529
     19 C           4.6660   -1.8414    0.0000 C.ar    1  UNL1        0.2006
     20 C           3.8000   -1.3414    0.0000 C.ar    1  UNL1        0.0459
     21 C           4.6660    1.1586    0.0000 C.3     1  UNL1        0.0124
     22 C           2.9061    0.1932    0.0000 C.ar    1  UNL1       -0.0375
     23 C           2.9061   -1.8761    0.0000 C.ar    1  UNL1       -0.0489
     24 C           2.0000   -0.3206    0.0000 C.ar    1  UNL1       -0.0598
     25 C           2.0000   -1.3623    0.0000 C.ar    1  UNL1       -0.0610
     26 H           7.3237    1.8399    0.0000 H       1  UNL1        0.0767
     27 H           6.8864    3.1574    0.0000 H       1  UNL1        0.0591
     28 H           6.8937    2.2076    0.0000 H       1  UNL1        0.0591
     29 H           6.6322    1.8271    0.0000 H       1  UNL1        0.0352
     30 H           6.0191    1.2684    0.0000 H       1  UNL1        0.0352
     31 H           9.0555    1.5886    0.0000 H       1  UNL1        0.0588
     32 H           9.7426    1.9924    0.0000 H       1  UNL1        0.0588
     33 H           7.8678   -1.6743    0.0000 H       1  UNL1        0.0691
     34 H          10.2717    3.0746    0.0000 H       1  UNL1        0.2095
     35 H           5.2860    1.1586    0.0000 H       1  UNL1        0.0456
     36 H           4.6660    1.7786    0.0000 H       1  UNL1        0.0456
     37 H           4.0460    1.1586    0.0000 H       1  UNL1        0.0456
     38 H           2.9132    0.8132    0.0000 H       1  UNL1        0.0638
     39 H           2.9132   -2.4961    0.0000 H       1  UNL1        0.0625
     40 H           6.9478   -3.1922    0.0000 H       1  UNL1        0.2922
     41 H           1.4643   -0.0086    0.0000 H       1  UNL1        0.0618
     42 H           1.4643   -1.6743    0.0000 H       1  UNL1        0.0618
@<TRIPOS>BOND
     1     1     7    1
     2     1     9    1
     3     2     8    1
     4     2    13    1
     5     3    11    1
     6     3    34    1
     7     4    17    1
     8     4    40    1
     9     5    19    2
    10     6    14   ar
    11     6    18   ar
    12     6    21    1
    13     7     8    1
    14     7     9    1
    15     7    11    1
    16     8    10    1
    17     8    26    1
    18     9    27    1
    19     9    28    1
    20    10    12    1
    21    10    29    1
    22    10    30    1
    23    11    31    1
    24    11    32    1
    25    12    13   ar
    26    12    14   ar
    27    13    16   ar
    28    14    15   ar
    29    15    17   ar
    30    15    19   ar
    31    16    17   ar
    32    16    33    1
    33    18    20   ar
    34    18    22   ar
    35    19    20   ar
    36    20    23   ar
    37    21    35    1
    38    21    36    1
    39    21    37    1
    40    22    24   ar
    41    22    38    1
    42    23    25   ar
    43    23    39    1
    44    24    25   ar
    45    24    41    1
    46    25    42    1
