@<TRIPOS>MOLECULE
IMPHY006994
 14 14 0 0 0
SMALL
GASTEIGER

@<TRIPOS>ATOM
      1 O           5.4641    1.0000    0.0000 O.2     1  GLY1       -0.2741
      2 O           2.0000   -1.0000    0.0000 O.2     2  GLY2       -0.2741
      3 N           3.7320   -1.0000    0.0000 N.am    1  GLY1       -0.3054
      4 N           3.7320    1.0000    0.0000 N.am    2  GLY2       -0.3054
      5 CA          2.8660    0.5000    0.0000 C.3     2  GLY2        0.0882
      6 CA          4.5981   -0.5000    0.0000 C.3     1  GLY1        0.0882
      7 C           4.5981    0.5000    0.0000 C.2     1  GLY1        0.2306
      8 C           2.8660   -0.5000    0.0000 C.2     2  GLY2        0.2306
      9 HA1         2.6540    1.0826    0.0000 H       2  GLY2        0.0558
     10 HA2         2.2554    0.3923    0.0000 H       2  GLY2        0.0558
     11 HA1         4.8101   -1.0826    0.0000 H       1  GLY1        0.0558
     12 HA2         5.2087   -0.3923    0.0000 H       1  GLY1        0.0558
     13 H           3.7320   -1.6200    0.0000 H       1  GLY1        0.1492
     14 H           3.7320    1.6200    0.0000 H       2  GLY2        0.1492
@<TRIPOS>BOND
     1     1     7    2
     2     2     8    2
     3     3     6    1
     4     3     8   am
     5     3    13    1
     6     4     5    1
     7     4     7   am
     8     4    14    1
     9     5     8    1
    10     5     9    1
    11     5    10    1
    12     6     7    1
    13     6    11    1
    14     6    12    1
