@<TRIPOS>MOLECULE
IMPHY015653
 40 41 0 0 0
SMALL
GASTEIGER

@<TRIPOS>ATOM
      1 O           6.1369    3.7250    0.0000 O.3     1  UNL1       -0.3907
      2 C           3.5388   -1.7750    0.0000 C.3     1  UNL1       -0.0162
      3 C           3.5388   -2.7750    0.0000 C.3     1  UNL1       -0.0134
      4 C           4.4054   -2.2750    0.0000 C.3     1  UNL1       -0.0392
      5 C           3.5388   -0.7750    0.0000 C.3     1  UNL1       -0.0371
      6 C           2.5878   -1.4660    0.0000 C.3     1  UNL1       -0.0280
      7 C           2.5878   -3.0840    0.0000 C.2     1  UNL1       -0.0729
      8 C           2.0000   -2.2750    0.0000 C.2     1  UNL1       -0.0842
      9 C           4.4049   -0.2750    0.0000 C.3     1  UNL1       -0.0465
     10 C           2.6728   -0.2750    0.0000 C.3     1  UNL1       -0.0619
     11 C           2.2788   -4.0350    0.0000 C.3     1  UNL1       -0.0435
     12 C           4.4049    0.7250    0.0000 C.3     1  UNL1       -0.0342
     13 C           5.2709    1.2250    0.0000 C.2     1  UNL1       -0.0829
     14 C           5.2709    2.2250    0.0000 C.2     1  UNL1       -0.0515
     15 C           6.1369    2.7250    0.0000 C.3     1  UNL1        0.0650
     16 C           4.4049    2.7250    0.0000 C.3     1  UNL1       -0.0416
     17 H           3.8845   -3.5515    0.0000 H       1  UNL1        0.0351
     18 H           4.8039   -2.7499    0.0000 H       1  UNL1        0.0277
     19 H           4.8039   -1.8000    0.0000 H       1  UNL1        0.0277
     20 H           3.5388   -0.1550    0.0000 H       1  UNL1        0.0304
     21 H           2.8400   -0.8995    0.0000 H       1  UNL1        0.0313
     22 H           2.0508   -1.1560    0.0000 H       1  UNL1        0.0313
     23 H           1.3800   -2.2750    0.0000 H       1  UNL1        0.0572
     24 H           4.6169   -0.8576    0.0000 H       1  UNL1        0.0271
     25 H           5.0155   -0.1673    0.0000 H       1  UNL1        0.0271
     26 H           2.9828    0.2620    0.0000 H       1  UNL1        0.0233
     27 H           2.1359    0.0350    0.0000 H       1  UNL1        0.0233
     28 H           2.3628   -0.8119    0.0000 H       1  UNL1        0.0233
     29 H           1.6891   -3.8434    0.0000 H       1  UNL1        0.0274
     30 H           2.0872   -4.6247    0.0000 H       1  UNL1        0.0274
     31 H           2.8684   -4.2266    0.0000 H       1  UNL1        0.0274
     32 H           4.1928    1.3076    0.0000 H       1  UNL1        0.0307
     33 H           3.7943    0.6174    0.0000 H       1  UNL1        0.0307
     34 H           5.8078    0.9150    0.0000 H       1  UNL1        0.0572
     35 H           6.3490    2.1424    0.0000 H       1  UNL1        0.0604
     36 H           6.7475    2.8327    0.0000 H       1  UNL1        0.0604
     37 H           4.7149    3.2620    0.0000 H       1  UNL1        0.0275
     38 H           3.8679    3.0350    0.0000 H       1  UNL1        0.0275
     39 H           4.0949    2.1881    0.0000 H       1  UNL1        0.0275
     40 H           6.6738    4.0350    0.0000 H       1  UNL1        0.2098
@<TRIPOS>BOND
     1     1    15    1
     2     1    40    1
     3     2     3    1
     4     2     4    1
     5     2     5    1
     6     2     6    1
     7     3     4    1
     8     3     7    1
     9     3    17    1
    10     4    18    1
    11     4    19    1
    12     5     9    1
    13     5    10    1
    14     5    20    1
    15     6     8    1
    16     6    21    1
    17     6    22    1
    18     7     8    2
    19     7    11    1
    20     8    23    1
    21     9    12    1
    22     9    24    1
    23     9    25    1
    24    10    26    1
    25    10    27    1
    26    10    28    1
    27    11    29    1
    28    11    30    1
    29    11    31    1
    30    12    13    1
    31    12    32    1
    32    12    33    1
    33    13    14    2
    34    13    34    1
    35    14    15    1
    36    14    16    1
    37    15    35    1
    38    15    36    1
    39    16    37    1
    40    16    38    1
    41    16    39    1
