@<TRIPOS>MOLECULE
IMPHY007952
 38 41 0 0 0
SMALL
GASTEIGER

@<TRIPOS>ATOM
      1 O           5.4806   -0.5724    0.0000 O.3     1  UNL1       -0.4811
      2 O           2.8826   -0.0725    0.0000 O.3     1  UNL1       -0.3872
      3 O           3.7214   -3.5767    0.0000 O.3     1  UNL1       -0.4253
      4 O           2.0000   -3.5417    0.0000 O.2     1  UNL1       -0.2504
      5 O           7.2666   -3.6176    0.0000 O.3     1  UNL1       -0.5065
      6 O           6.3467    2.9276    0.0000 O.3     1  UNL1       -0.5033
      7 O           4.6146    3.9276    0.0000 O.3     1  UNL1       -0.5033
      8 C           3.7486   -1.5724    0.0000 C.3     1  UNL1        0.0310
      9 C           3.7486   -0.5724    0.0000 C.3     1  UNL1        0.1037
     10 C           4.6146   -0.0725    0.0000 C.3     1  UNL1        0.1515
     11 C           4.6146   -2.0724    0.0000 C.ar    1  UNL1        0.0430
     12 C           2.8891   -2.0672    0.0000 C.3     1  UNL1        0.0549
     13 C           5.4806   -1.5724    0.0000 C.ar    1  UNL1        0.1320
     14 C           4.5986   -3.1140    0.0000 C.ar    1  UNL1        0.1421
     15 C           4.6146    0.9276    0.0000 C.ar    1  UNL1       -0.0012
     16 C           2.8757   -3.0588    0.0000 C.2     1  UNL1        0.3130
     17 C           6.3906   -2.0793    0.0000 C.ar    1  UNL1        0.0221
     18 C           5.4966   -3.6417    0.0000 C.ar    1  UNL1        0.0228
     19 C           6.3987   -3.1209    0.0000 C.ar    1  UNL1        0.1238
     20 C           5.4806    1.4276    0.0000 C.ar    1  UNL1       -0.0098
     21 C           3.7486    1.4276    0.0000 C.ar    1  UNL1       -0.0513
     22 C           5.4806    2.4276    0.0000 C.ar    1  UNL1        0.1586
     23 C           3.7486    2.4276    0.0000 C.ar    1  UNL1       -0.0162
     24 C           4.6146    2.9276    0.0000 C.ar    1  UNL1        0.1582
     25 H           3.0127   -1.1470    0.0000 H       1  UNL1        0.0383
     26 H           3.7486    0.0475    0.0000 H       1  UNL1        0.0640
     27 H           5.1516    0.2376    0.0000 H       1  UNL1        0.0811
     28 H           2.6802   -1.4835    0.0000 H       1  UNL1        0.0384
     29 H           2.2776   -2.1691    0.0000 H       1  UNL1        0.0384
     30 H           6.9240   -1.7631    0.0000 H       1  UNL1        0.0691
     31 H           2.3456   -0.3824    0.0000 H       1  UNL1        0.2100
     32 H           5.4942   -4.2617    0.0000 H       1  UNL1        0.0691
     33 H           6.0176    1.1176    0.0000 H       1  UNL1        0.0659
     34 H           3.2117    1.1176    0.0000 H       1  UNL1        0.0623
     35 H           3.2117    2.7376    0.0000 H       1  UNL1        0.0655
     36 H           7.2690   -4.2376    0.0000 H       1  UNL1        0.2921
     37 H           6.8836    2.6176    0.0000 H       1  UNL1        0.2923
     38 H           4.0777    4.2376    0.0000 H       1  UNL1        0.2923
@<TRIPOS>BOND
     1     1    10    1
     2     1    13    1
     3     9     2    1
     4     2    31    1
     5     3    14    1
     6     3    16    1
     7     4    16    2
     8     5    19    1
     9     5    36    1
    10     6    22    1
    11     6    37    1
    12     7    24    1
    13     7    38    1
    14     8     9    1
    15     8    11    1
    16     8    12    1
    17     8    25    1
    18     9    10    1
    19     9    26    1
    20    10    15    1
    21    10    27    1
    22    11    13   ar
    23    11    14   ar
    24    12    16    1
    25    12    28    1
    26    12    29    1
    27    13    17   ar
    28    14    18   ar
    29    15    20   ar
    30    15    21   ar
    31    17    19   ar
    32    17    30    1
    33    18    19   ar
    34    18    32    1
    35    20    22   ar
    36    20    33    1
    37    21    23   ar
    38    21    34    1
    39    22    24   ar
    40    23    24   ar
    41    23    35    1
