@<TRIPOS>MOLECULE
IMPHY012046
 44 49 0 0 0
SMALL
GASTEIGER

@<TRIPOS>ATOM
      1 O           6.2344   -1.0222    0.0000 O.3     1  UNL1       -0.3712
      2 O           8.5149    1.0312    0.0000 O.3     1  UNL1       -0.3712
      3 O           2.5850    0.1555    0.0000 O.3     1  UNL1       -0.4526
      4 O          12.1637   -0.1586    0.0000 O.3     1  UNL1       -0.4526
      5 O           2.5822    1.7650    0.0000 O.3     1  UNL1       -0.4526
      6 O          12.1637   -1.7681    0.0000 O.3     1  UNL1       -0.4526
      7 C           7.0367    0.3730    0.0000 C.3     1  UNL1        0.0205
      8 C           7.7058   -0.3701    0.0000 C.3     1  UNL1        0.0205
      9 C           6.1296   -0.0336    0.0000 C.3     1  UNL1        0.0891
     10 C           8.6194    0.0366    0.0000 C.3     1  UNL1        0.0891
     11 C           7.2066   -1.2297    0.0000 C.3     1  UNL1        0.0544
     12 C           7.5367    1.2391    0.0000 C.3     1  UNL1        0.0544
     13 C           5.2627    0.4649    0.0000 C.ar    1  UNL1       -0.0149
     14 C           9.4854   -0.4634    0.0000 C.ar    1  UNL1       -0.0149
     15 C           4.3976   -0.0366    0.0000 C.ar    1  UNL1       -0.0105
     16 C          10.3514    0.0366    0.0000 C.ar    1  UNL1       -0.0105
     17 C           5.2610    1.4649    0.0000 C.ar    1  UNL1       -0.0524
     18 C           9.4854   -1.4634    0.0000 C.ar    1  UNL1       -0.0524
     19 C           3.5307    0.4619    0.0000 C.ar    1  UNL1        0.1666
     20 C          11.2175   -0.4634    0.0000 C.ar    1  UNL1        0.1666
     21 C           4.3941    1.9634    0.0000 C.ar    1  UNL1       -0.0158
     22 C          10.3514   -1.9634    0.0000 C.ar    1  UNL1       -0.0158
     23 C           3.5290    1.4619    0.0000 C.ar    1  UNL1        0.1662
     24 C          11.2175   -1.4634    0.0000 C.ar    1  UNL1        0.1662
     25 C           2.0000    0.9592    0.0000 C.3     1  UNL1        0.2332
     26 C          12.7473   -0.9634    0.0000 C.3     1  UNL1        0.2332
     27 H           6.4671    1.0040    0.0000 H       1  UNL1        0.0356
     28 H           8.2738   -1.0025    0.0000 H       1  UNL1        0.0356
     29 H           5.6101   -0.3720    0.0000 H       1  UNL1        0.0650
     30 H           9.1394    0.3743    0.0000 H       1  UNL1        0.0650
     31 H           7.0141   -1.8191    0.0000 H       1  UNL1        0.0564
     32 H           7.7725   -1.4830    0.0000 H       1  UNL1        0.0564
     33 H           7.7283    1.8287    0.0000 H       1  UNL1        0.0564
     34 H           6.9703    1.4912    0.0000 H       1  UNL1        0.0564
     35 H           4.3986   -0.6566    0.0000 H       1  UNL1        0.0659
     36 H          10.3514    0.6566    0.0000 H       1  UNL1        0.0659
     37 H           5.7974    1.7758    0.0000 H       1  UNL1        0.0622
     38 H           8.9485   -1.7734    0.0000 H       1  UNL1        0.0622
     39 H           4.3930    2.5834    0.0000 H       1  UNL1        0.0655
     40 H          10.3514   -2.5834    0.0000 H       1  UNL1        0.0655
     41 H           1.5384    1.3732    0.0000 H       1  UNL1        0.1166
     42 H           1.5398    0.5437    0.0000 H       1  UNL1        0.1166
     43 H          13.2082   -1.3781    0.0000 H       1  UNL1        0.1166
     44 H          13.2082   -0.5486    0.0000 H       1  UNL1        0.1166
@<TRIPOS>BOND
     1     1     9    1
     2     1    11    1
     3     2    10    1
     4     2    12    1
     5     3    19    1
     6     3    25    1
     7     4    20    1
     8     4    26    1
     9     5    23    1
    10     5    25    1
    11     6    24    1
    12     6    26    1
    13     7     8    1
    14     7     9    1
    15     7    12    1
    16     7    27    1
    17     8    10    1
    18     8    11    1
    19     8    28    1
    20     9    13    1
    21     9    29    1
    22    10    14    1
    23    10    30    1
    24    11    31    1
    25    11    32    1
    26    12    33    1
    27    12    34    1
    28    13    15   ar
    29    13    17   ar
    30    14    16   ar
    31    14    18   ar
    32    15    19   ar
    33    15    35    1
    34    16    20   ar
    35    16    36    1
    36    17    21   ar
    37    17    37    1
    38    18    22   ar
    39    18    38    1
    40    19    23   ar
    41    20    24   ar
    42    21    23   ar
    43    21    39    1
    44    22    24   ar
    45    22    40    1
    46    25    41    1
    47    25    42    1
    48    26    43    1
    49    26    44    1
