@<TRIPOS>MOLECULE
IMPHY008350
 54 54 0 0 0
SMALL
GASTEIGER

@<TRIPOS>ATOM
      1 O           6.3301   -0.5950    0.0000 O.3     1  UNL1       -0.3293
      2 O           8.0622   -2.5950    0.0000 O.3     1  UNL1       -0.4521
      3 O           6.3301   -3.5950    0.0000 O.3     1  UNL1       -0.3852
      4 O           4.5981   -2.5950    0.0000 O.3     1  UNL1       -0.3864
      5 O           8.0622   -0.5950    0.0000 O.3     1  UNL1       -0.4309
      6 O           4.5981    0.4050    0.0000 O.3     1  UNL1       -0.4618
      7 O           8.9282   -1.0950    0.0000 O.2     1  UNL1       -0.2506
      8 O           7.1962    0.9050    0.0000 O.2     1  UNL1       -0.2505
      9 O           2.8660    0.4050    0.0000 O.2     1  UNL1       -0.2506
     10 O          12.3923   -2.0950    0.0000 O.co2   1  UNL1       -0.5818
     11 O          11.5263   -3.5950    0.0000 O.2     1  UNL1        0.0344
     12 O           9.7942    3.4050    0.0000 O.co2   1  UNL1       -0.5818
     13 O          10.6603    1.9050    0.0000 O.2     1  UNL1        0.0344
     14 O           2.0000    3.9050    0.0000 O.co2   1  UNL1       -0.5818
     15 O           3.7320    3.9050    0.0000 O.2     1  UNL1        0.0344
     16 N          11.5263   -2.5950    0.0000 N.pl3   1  UNL1        0.0385
     17 N           9.7942    2.4050    0.0000 N.pl3   1  UNL1        0.0385
     18 N           2.8660    3.4050    0.0000 N.pl3   1  UNL1        0.0385
     19 C           6.3301   -2.5950    0.0000 C.3     1  UNL1        0.1263
     20 C           5.4641   -2.0950    0.0000 C.3     1  UNL1        0.1141
     21 C           7.1962   -2.0950    0.0000 C.3     1  UNL1        0.1930
     22 C           5.4641   -1.0950    0.0000 C.3     1  UNL1        0.1250
     23 C           7.1962   -1.0950    0.0000 C.3     1  UNL1        0.2450
     24 C           4.5981   -0.5950    0.0000 C.3     1  UNL1        0.1212
     25 C           8.9282   -2.0950    0.0000 C.2     1  UNL1        0.3139
     26 C           8.0622    0.4050    0.0000 C.2     1  UNL1        0.3157
     27 C           9.7942   -2.5950    0.0000 C.3     1  UNL1        0.1096
     28 C           8.9282    0.9050    0.0000 C.3     1  UNL1        0.1096
     29 C           3.7320    0.9050    0.0000 C.2     1  UNL1        0.3135
     30 C          10.6603   -2.0950    0.0000 C.3     1  UNL1        0.2177
     31 C           3.7320    1.9050    0.0000 C.3     1  UNL1        0.1096
     32 C           8.9282    1.9050    0.0000 C.3     1  UNL1        0.2177
     33 C           2.8660    2.4050    0.0000 C.3     1  UNL1        0.2177
     34 H           5.7932   -2.9050    0.0000 H       1  UNL1        0.0659
     35 H           4.9272   -1.7850    0.0000 H       1  UNL1        0.0648
     36 H           7.1962   -2.7150    0.0000 H       1  UNL1        0.0825
     37 H           5.4641   -0.4750    0.0000 H       1  UNL1        0.0658
     38 H           7.7331   -1.4050    0.0000 H       1  UNL1        0.1097
     39 H           3.9875   -0.4873    0.0000 H       1  UNL1        0.0724
     40 H           4.3860   -1.1776    0.0000 H       1  UNL1        0.0724
     41 H           5.7932   -3.9050    0.0000 H       1  UNL1        0.2101
     42 H           4.0611   -2.2850    0.0000 H       1  UNL1        0.2100
     43 H           9.3957   -3.0700    0.0000 H       1  UNL1        0.0442
     44 H          10.1928   -3.0700    0.0000 H       1  UNL1        0.0442
     45 H           9.1403    0.3224    0.0000 H       1  UNL1        0.0442
     46 H           9.5388    1.0127    0.0000 H       1  UNL1        0.0442
     47 H          11.0588   -1.6200    0.0000 H       1  UNL1        0.1093
     48 H          10.2617   -1.6200    0.0000 H       1  UNL1        0.1093
     49 H           4.3426    1.7973    0.0000 H       1  UNL1        0.0442
     50 H           3.9441    2.4876    0.0000 H       1  UNL1        0.0442
     51 H           8.7162    2.4876    0.0000 H       1  UNL1        0.1093
     52 H           8.3176    1.7973    0.0000 H       1  UNL1        0.1093
     53 H           2.2554    2.5127    0.0000 H       1  UNL1        0.1093
     54 H           2.6540    1.8224    0.0000 H       1  UNL1        0.1093
@<TRIPOS>UNITY_ATOM_ATTR
10 1
charge -1
12 1
charge -1
14 1
charge -1
16 1
charge 1
17 1
charge 1
18 1
charge 1
@<TRIPOS>BOND
     1     1    22    1
     2     1    23    1
     3    21     2    1
     4     2    25    1
     5    19     3    1
     6     3    41    1
     7    20     4    1
     8     4    42    1
     9    23     5    1
    10     5    26    1
    11     6    24    1
    12     6    29    1
    13     7    25    2
    14     8    26    2
    15     9    29    2
    16    10    16    1
    17    11    16    2
    18    12    17    1
    19    13    17    2
    20    14    18    1
    21    15    18    2
    22    16    30    1
    23    17    32    1
    24    18    33    1
    25    19    20    1
    26    19    21    1
    27    19    34    1
    28    20    22    1
    29    20    35    1
    30    21    23    1
    31    21    36    1
    32    22    24    1
    33    22    37    1
    34    23    38    1
    35    24    39    1
    36    24    40    1
    37    25    27    1
    38    26    28    1
    39    27    30    1
    40    27    43    1
    41    27    44    1
    42    28    32    1
    43    28    45    1
    44    28    46    1
    45    29    31    1
    46    30    47    1
    47    30    48    1
    48    31    33    1
    49    31    49    1
    50    31    50    1
    51    32    51    1
    52    32    52    1
    53    33    53    1
    54    33    54    1
