@<TRIPOS>MOLECULE
IMPHY008637
 42 45 0 0 0
SMALL
GASTEIGER

@<TRIPOS>ATOM
      1 O           5.5301    3.5000    0.0000 O.3     1  UNL1       -0.5060
      2 O           5.5301   -3.5000    0.0000 O.3     1  UNL1       -0.5060
      3 O           7.2785   -0.5346    0.0000 O.2     1  UNL1       -0.2870
      4 O           3.7817    0.5346    0.0000 O.2     1  UNL1       -0.2870
      5 O           7.2785    3.5346    0.0000 O.2     1  UNL1       -0.2871
      6 O           3.7817   -3.5346    0.0000 O.2     1  UNL1       -0.2871
      7 C           5.5301    0.5000    0.0000 C.ar    1  UNL1       -0.0055
      8 C           5.5301   -0.5000    0.0000 C.ar    1  UNL1       -0.0055
      9 C           6.3961    1.0000    0.0000 C.ar    1  UNL1        0.0439
     10 C           4.6641   -1.0000    0.0000 C.ar    1  UNL1        0.0439
     11 C           4.6641   -2.0000    0.0000 C.ar    1  UNL1        0.0744
     12 C           6.3961    2.0000    0.0000 C.ar    1  UNL1        0.0744
     13 C           4.6641    1.0000    0.0000 C.ar    1  UNL1       -0.0498
     14 C           6.3961   -1.0000    0.0000 C.ar    1  UNL1       -0.0498
     15 C           7.2901    0.4653    0.0000 C.2     1  UNL1        0.1904
     16 C           3.7702   -0.4653    0.0000 C.2     1  UNL1        0.1904
     17 C           5.5301    2.5000    0.0000 C.ar    1  UNL1        0.1284
     18 C           5.5301   -2.5000    0.0000 C.ar    1  UNL1        0.1284
     19 C           8.1962    0.9792    0.0000 C.2     1  UNL1        0.0005
     20 C           2.8641   -0.9792    0.0000 C.2     1  UNL1        0.0005
     21 C           7.2901    2.5347    0.0000 C.2     1  UNL1        0.1906
     22 C           3.7702   -2.5347    0.0000 C.2     1  UNL1        0.1906
     23 C           4.6641    2.0000    0.0000 C.ar    1  UNL1       -0.0189
     24 C           6.3961   -2.0000    0.0000 C.ar    1  UNL1       -0.0189
     25 C           8.1962    2.0208    0.0000 C.2     1  UNL1       -0.0077
     26 C           2.8641   -2.0208    0.0000 C.2     1  UNL1       -0.0077
     27 C           2.0000   -0.4758    0.0000 C.3     1  UNL1       -0.0359
     28 C           9.0602    0.4758    0.0000 C.3     1  UNL1       -0.0359
     29 H           6.9331   -0.6900    0.0000 H       1  UNL1        0.0625
     30 H           4.1272    0.6900    0.0000 H       1  UNL1        0.0625
     31 H           6.9331   -2.3100    0.0000 H       1  UNL1        0.0654
     32 H           4.1272    2.3100    0.0000 H       1  UNL1        0.0654
     33 H           2.3284   -2.3329    0.0000 H       1  UNL1        0.0660
     34 H           8.7319    2.3329    0.0000 H       1  UNL1        0.0660
     35 H           2.3121    0.0599    0.0000 H       1  UNL1        0.0279
     36 H           8.7482   -0.0599    0.0000 H       1  UNL1        0.0279
     37 H           9.5960    0.1638    0.0000 H       1  UNL1        0.0279
     38 H           9.3723    1.0116    0.0000 H       1  UNL1        0.0279
     39 H           1.4643   -0.1638    0.0000 H       1  UNL1        0.0279
     40 H           1.6879   -1.0116    0.0000 H       1  UNL1        0.0279
     41 H           4.9932    3.8100    0.0000 H       1  UNL1        0.2922
     42 H           6.0671   -3.8100    0.0000 H       1  UNL1        0.2922
@<TRIPOS>BOND
     1     1    17    1
     2     1    41    1
     3     2    18    1
     4     2    42    1
     5     3    15    2
     6     4    16    2
     7     5    21    2
     8     6    22    2
     9     7     8    1
    10     7     9   ar
    11     7    13   ar
    12     8    10   ar
    13     8    14   ar
    14     9    12   ar
    15     9    15    1
    16    10    11   ar
    17    10    16    1
    18    11    18   ar
    19    11    22    1
    20    12    17   ar
    21    12    21    1
    22    13    23   ar
    23    13    30    1
    24    14    24   ar
    25    14    29    1
    26    15    19    1
    27    16    20    1
    28    17    23   ar
    29    18    24   ar
    30    19    25    2
    31    19    28    1
    32    20    26    2
    33    20    27    1
    34    21    25    1
    35    22    26    1
    36    23    32    1
    37    24    31    1
    38    25    34    1
    39    26    33    1
    40    27    35    1
    41    27    39    1
    42    27    40    1
    43    28    36    1
    44    28    37    1
    45    28    38    1
