@<TRIPOS>MOLECULE
IMPHY002992
 21 22 0 0 0
SMALL
GASTEIGER

@<TRIPOS>ATOM
      1 O           3.7320   -2.0000    0.0000 O.2     1  UNL1       -0.2870
      2 O           3.7320    2.0000    0.0000 O.2     1  UNL1       -0.2872
      3 C           4.5981   -0.5000    0.0000 C.ar    1  UNL1        0.0327
      4 C           4.5981    0.5000    0.0000 C.ar    1  UNL1        0.0325
      5 C           2.8660   -0.5000    0.0000 C.2     1  UNL1        0.0004
      6 C           3.7320   -1.0000    0.0000 C.2     1  UNL1        0.1897
      7 C           3.7320    1.0000    0.0000 C.2     1  UNL1        0.1871
      8 C           2.8660    0.5000    0.0000 C.2     1  UNL1       -0.0078
      9 C           5.4920   -1.0347    0.0000 C.ar    1  UNL1       -0.0502
     10 C           5.4920    1.0347    0.0000 C.ar    1  UNL1       -0.0503
     11 C           2.0000   -1.0000    0.0000 C.3     1  UNL1       -0.0359
     12 C           6.3981   -0.5208    0.0000 C.ar    1  UNL1       -0.0610
     13 C           6.3981    0.5208    0.0000 C.ar    1  UNL1       -0.0610
     14 H           2.3291    0.8100    0.0000 H       1  UNL1        0.0660
     15 H           5.4848   -1.6546    0.0000 H       1  UNL1        0.0625
     16 H           5.4848    1.6546    0.0000 H       1  UNL1        0.0625
     17 H           1.6900   -0.4631    0.0000 H       1  UNL1        0.0279
     18 H           1.4631   -1.3100    0.0000 H       1  UNL1        0.0279
     19 H           2.3100   -1.5369    0.0000 H       1  UNL1        0.0279
     20 H           6.9338   -0.8329    0.0000 H       1  UNL1        0.0618
     21 H           6.9338    0.8329    0.0000 H       1  UNL1        0.0618
@<TRIPOS>BOND
     1     1     6    2
     2     2     7    2
     3     3     4   ar
     4     3     6    1
     5     3     9   ar
     6     4     7    1
     7     4    10   ar
     8     5     6    1
     9     5     8    2
    10     5    11    1
    11     7     8    1
    12     8    14    1
    13     9    12   ar
    14     9    15    1
    15    10    13   ar
    16    10    16    1
    17    11    17    1
    18    11    18    1
    19    11    19    1
    20    12    13   ar
    21    12    20    1
    22    13    21    1
