@<TRIPOS>MOLECULE
IMPHY005616
 27 29 0 0 0
SMALL
GASTEIGER

@<TRIPOS>ATOM
      1 O           6.0682   -1.0000    0.0000 O.2     1  UNL1       -0.4506
      2 O           6.0682    2.0000    0.0000 O.2     1  UNL1       -0.2861
      3 O           4.3198    2.0346    0.0000 O.3     1  UNL1       -0.5058
      4 O           7.8167    2.0346    0.0000 O.3     1  UNL1       -0.5059
      5 O           7.8167   -2.0346    0.0000 O.3     1  UNL1       -0.5033
      6 O           2.5381   -1.0241    0.0000 O.3     1  UNL1       -0.5065
      7 C           6.9343    0.5000    0.0000 C.ar    1  UNL1        0.1096
      8 C           5.2022    0.5000    0.0000 C.ar    1  UNL1        0.1062
      9 C           6.9343   -0.5000    0.0000 C.ar    1  UNL1        0.1839
     10 C           5.2022   -0.5000    0.0000 C.ar    1  UNL1        0.1464
     11 C           6.0682    1.0000    0.0000 C.ar    1  UNL1        0.2074
     12 C           4.3083    1.0347    0.0000 C.ar    1  UNL1        0.1347
     13 C           7.8282    1.0347    0.0000 C.ar    1  UNL1        0.1315
     14 C           7.8282   -1.0347    0.0000 C.ar    1  UNL1        0.1600
     15 C           4.3083   -1.0347    0.0000 C.ar    1  UNL1        0.0231
     16 C           3.4022    0.5208    0.0000 C.ar    1  UNL1        0.0223
     17 C           3.4022   -0.5208    0.0000 C.ar    1  UNL1        0.1239
     18 C           8.7343    0.5208    0.0000 C.ar    1  UNL1       -0.0158
     19 C           8.7343   -0.5208    0.0000 C.ar    1  UNL1       -0.0130
     20 H           4.3154   -1.6546    0.0000 H       1  UNL1        0.0691
     21 H           2.8665    0.8329    0.0000 H       1  UNL1        0.0691
     22 H           9.2700    0.8329    0.0000 H       1  UNL1        0.0655
     23 H           9.2700   -0.8329    0.0000 H       1  UNL1        0.0656
     24 H           3.7865    2.3508    0.0000 H       1  UNL1        0.2922
     25 H           8.3500    2.3508    0.0000 H       1  UNL1        0.2922
     26 H           8.3500   -2.3508    0.0000 H       1  UNL1        0.2923
     27 H           2.0000   -0.7162    0.0000 H       1  UNL1        0.2921
@<TRIPOS>BOND
     1     1     9   ar
     2     1    10   ar
     3     2    11    2
     4     3    12    1
     5     3    24    1
     6     4    13    1
     7     4    25    1
     8     5    14    1
     9     5    26    1
    10     6    17    1
    11     6    27    1
    12     7     9   ar
    13     7    11   ar
    14     7    13   ar
    15     8    10   ar
    16     8    11   ar
    17     8    12   ar
    18     9    14   ar
    19    10    15   ar
    20    12    16   ar
    21    13    18   ar
    22    14    19   ar
    23    15    17   ar
    24    15    20    1
    25    16    17   ar
    26    16    21    1
    27    18    19   ar
    28    18    22    1
    29    19    23    1
