@<TRIPOS>MOLECULE
IMPHY005789
 26 25 0 0 0
SMALL
GASTEIGER

@<TRIPOS>ATOM
      1 N           4.2690    0.6900    0.0000 N.pl3   1  UNL1       -0.2760
      2 N           8.5991    0.1900    0.0000 N.3     1  UNL1       -0.3300
      3 N           2.5369    0.6900    0.0000 N.pl3   1  UNL1       -0.2891
      4 N           3.4030   -0.8100    0.0000 N.pl3   1  UNL1       -0.1170
      5 C           6.0010    0.6900    0.0000 C.3     1  UNL1       -0.0211
      6 C           6.8671    0.1900    0.0000 C.3     1  UNL1       -0.0378
      7 C           5.1350    0.1900    0.0000 C.3     1  UNL1        0.0647
      8 C           7.7331    0.6900    0.0000 C.3     1  UNL1       -0.0068
      9 C           3.4030    0.1900    0.0000 C.cat   1  UNL1        0.3785
     10 C           2.5369   -1.3100    0.0000 C.3     1  UNL1        0.0940
     11 H           6.3996    1.1650    0.0000 H       1  UNL1        0.0296
     12 H           5.6025    1.1650    0.0000 H       1  UNL1        0.0296
     13 H           6.4685   -0.2849    0.0000 H       1  UNL1        0.0278
     14 H           7.2656   -0.2849    0.0000 H       1  UNL1        0.0278
     15 H           4.7365   -0.2849    0.0000 H       1  UNL1        0.0655
     16 H           5.5335   -0.2849    0.0000 H       1  UNL1        0.0655
     17 H           8.1316    1.1650    0.0000 H       1  UNL1        0.0422
     18 H           7.3346    1.1650    0.0000 H       1  UNL1        0.0422
     19 H           4.2690    1.3100    0.0000 H       1  UNL1        0.2579
     20 H           9.1360    0.5000    0.0000 H       1  UNL1        0.1182
     21 H           8.5991   -0.4300    0.0000 H       1  UNL1        0.1182
     22 H           2.0000    0.3800    0.0000 H       1  UNL1        0.2547
     23 H           2.5369    1.3100    0.0000 H       1  UNL1        0.2547
     24 H           2.2269   -0.7731    0.0000 H       1  UNL1        0.0656
     25 H           2.0000   -1.6200    0.0000 H       1  UNL1        0.0656
     26 H           2.8469   -1.8469    0.0000 H       1  UNL1        0.0656
@<TRIPOS>BOND
     1     1     7    1
     2     1     9    1
     3     1    19    1
     4     2     8    1
     5     2    20    1
     6     2    21    1
     7     3     9    1
     8     3    22    1
     9     3    23    1
    10     4     9    2
    11     4    10    1
    12     5     6    1
    13     5     7    1
    14     5    11    1
    15     5    12    1
    16     6     8    1
    17     6    13    1
    18     6    14    1
    19     7    15    1
    20     7    16    1
    21     8    17    1
    22     8    18    1
    23    10    24    1
    24    10    25    1
    25    10    26    1
