@<TRIPOS>MOLECULE
IMPHY013473
 50 52 0 0 0
SMALL
GASTEIGER

@<TRIPOS>ATOM
      1 O           6.0000   -1.2990    0.0000 O.3     1  UNL1       -0.3645
      2 O           7.5000    0.5670    0.0000 O.2     1  UNL1       -0.4960
      3 O          11.2763   -0.4943    0.0000 O.3     1  UNL1       -0.4526
      4 O           4.5000    2.2990    0.0000 O.2     1  UNL1       -0.2875
      5 O          11.2763   -2.1038    0.0000 O.3     1  UNL1       -0.4526
      6 C           6.0000   -0.2990    0.0000 C.3     1  UNL1        0.1473
      7 C           6.8660   -0.7990    0.0000 C.3     1  UNL1        0.0000
      8 C           7.7320   -0.2990    0.0000 C.3     1  UNL1       -0.0216
      9 C           5.0000   -0.2990    0.0000 C.2     1  UNL1       -0.0379
     10 C           6.5000    0.5670    0.0000 C.2     1  UNL1        0.1367
     11 C           6.8660   -1.7990    0.0000 C.3     1  UNL1       -0.0588
     12 C           8.5981   -0.7990    0.0000 C.ar    1  UNL1       -0.0433
     13 C           4.5000    0.5670    0.0000 C.2     1  UNL1        0.0023
     14 C           6.0000    1.4330    0.0000 C.2     1  UNL1        0.0260
     15 C           5.0000    1.4330    0.0000 C.2     1  UNL1        0.1855
     16 C           3.5000    0.5670    0.0000 C.3     1  UNL1       -0.0063
     17 C           9.4641   -0.2990    0.0000 C.ar    1  UNL1       -0.0130
     18 C           8.5981   -1.7990    0.0000 C.ar    1  UNL1       -0.0549
     19 C           5.1340   -1.7990    0.0000 C.3     1  UNL1        0.0382
     20 C          10.3301   -0.7990    0.0000 C.ar    1  UNL1        0.1665
     21 C          10.3301   -1.7990    0.0000 C.ar    1  UNL1        0.1662
     22 C           9.4641   -2.2990    0.0000 C.ar    1  UNL1       -0.0159
     23 C           3.0000    1.4330    0.0000 C.2     1  UNL1       -0.0867
     24 C           8.0000    1.4330    0.0000 C.3     1  UNL1        0.0785
     25 C          11.8600   -1.2990    0.0000 C.3     1  UNL1        0.2332
     26 C           2.0000    1.4330    0.0000 C.2     1  UNL1       -0.1023
     27 H           7.4030   -1.1090    0.0000 H       1  UNL1        0.0337
     28 H           8.1306    0.1759    0.0000 H       1  UNL1        0.0317
     29 H           7.3335    0.1759    0.0000 H       1  UNL1        0.0317
     30 H           4.6900   -0.8360    0.0000 H       1  UNL1        0.0609
     31 H           6.2460   -1.7990    0.0000 H       1  UNL1        0.0234
     32 H           6.8660   -2.4190    0.0000 H       1  UNL1        0.0234
     33 H           7.4860   -1.7990    0.0000 H       1  UNL1        0.0234
     34 H           6.3100    1.9700    0.0000 H       1  UNL1        0.0690
     35 H           2.9174    0.3549    0.0000 H       1  UNL1        0.0357
     36 H           3.6077   -0.0436    0.0000 H       1  UNL1        0.0357
     37 H           9.4641    0.3210    0.0000 H       1  UNL1        0.0658
     38 H           8.0611   -2.1090    0.0000 H       1  UNL1        0.0621
     39 H           4.8240   -1.2621    0.0000 H       1  UNL1        0.0524
     40 H           4.5970   -2.1090    0.0000 H       1  UNL1        0.0524
     41 H           5.4440   -2.3360    0.0000 H       1  UNL1        0.0524
     42 H           9.4641   -2.9190    0.0000 H       1  UNL1        0.0655
     43 H           3.3100    1.9700    0.0000 H       1  UNL1        0.0570
     44 H           8.5369    1.1230    0.0000 H       1  UNL1        0.0660
     45 H           8.3100    1.9700    0.0000 H       1  UNL1        0.0660
     46 H           7.4631    1.7430    0.0000 H       1  UNL1        0.0660
     47 H          12.3208   -1.7138    0.0000 H       1  UNL1        0.1166
     48 H          12.3208   -0.8843    0.0000 H       1  UNL1        0.1166
     49 H           1.6900    1.9700    0.0000 H       1  UNL1        0.0532
     50 H           1.6900    0.8961    0.0000 H       1  UNL1        0.0532
@<TRIPOS>BOND
     1     1     6    1
     2     1    19    1
     3     2    10    1
     4     2    24    1
     5     3    20    1
     6     3    25    1
     7     4    15    2
     8     5    21    1
     9     5    25    1
    10     6     7    1
    11     6     9    1
    12     6    10    1
    13     7     8    1
    14     7    11    1
    15     7    27    1
    16     8    12    1
    17     8    28    1
    18     8    29    1
    19     9    13    2
    20     9    30    1
    21    10    14    2
    22    11    31    1
    23    11    32    1
    24    11    33    1
    25    12    17   ar
    26    12    18   ar
    27    13    15    1
    28    13    16    1
    29    14    15    1
    30    14    34    1
    31    16    23    1
    32    16    35    1
    33    16    36    1
    34    17    20   ar
    35    17    37    1
    36    18    22   ar
    37    18    38    1
    38    19    39    1
    39    19    40    1
    40    19    41    1
    41    20    21   ar
    42    21    22   ar
    43    22    42    1
    44    23    26    2
    45    23    43    1
    46    24    44    1
    47    24    45    1
    48    24    46    1
    49    25    47    1
    50    25    48    1
    51    26    49    1
    52    26    50    1
