@<TRIPOS>MOLECULE
IMPHY017244
 30 30 0 0 0
SMALL
GASTEIGER

@<TRIPOS>ATOM
      1 O           5.4641    2.7500    0.0000 O.3     1  UNL1       -0.4679
      2 O           3.7320    2.7500    0.0000 O.2     1  UNL1       -0.2509
      3 C           3.7320   -0.2500    0.0000 C.3     1  UNL1       -0.0486
      4 C           3.7320    0.7500    0.0000 C.3     1  UNL1       -0.0427
      5 C           2.8660   -0.7500    0.0000 C.3     1  UNL1       -0.0277
      6 C           4.5981    1.2500    0.0000 C.3     1  UNL1        0.0449
      7 C           2.8660   -1.7500    0.0000 C.ar    1  UNL1       -0.0474
      8 C           3.7320   -2.2500    0.0000 C.ar    1  UNL1       -0.0586
      9 C           2.0000   -2.2500    0.0000 C.ar    1  UNL1       -0.0586
     10 C           4.5981    2.2500    0.0000 C.2     1  UNL1        0.3068
     11 C           3.7320   -3.2500    0.0000 C.ar    1  UNL1       -0.0615
     12 C           2.0000   -3.2500    0.0000 C.ar    1  UNL1       -0.0615
     13 C           2.8660   -3.7500    0.0000 C.ar    1  UNL1       -0.0617
     14 C           5.4641    3.7500    0.0000 C.3     1  UNL1        0.0817
     15 H           3.9441   -0.8326    0.0000 H       1  UNL1        0.0269
     16 H           4.3426   -0.1423    0.0000 H       1  UNL1        0.0269
     17 H           3.5200    1.3326    0.0000 H       1  UNL1        0.0270
     18 H           3.1215    0.6423    0.0000 H       1  UNL1        0.0270
     19 H           2.6540   -0.1674    0.0000 H       1  UNL1        0.0313
     20 H           2.2554   -0.8577    0.0000 H       1  UNL1        0.0313
     21 H           4.8101    0.6674    0.0000 H       1  UNL1        0.0377
     22 H           5.2087    1.3577    0.0000 H       1  UNL1        0.0377
     23 H           4.2690   -1.9400    0.0000 H       1  UNL1        0.0620
     24 H           1.4631   -1.9400    0.0000 H       1  UNL1        0.0620
     25 H           4.2690   -3.5600    0.0000 H       1  UNL1        0.0618
     26 H           1.4631   -3.5600    0.0000 H       1  UNL1        0.0618
     27 H           2.8660   -4.3700    0.0000 H       1  UNL1        0.0618
     28 H           6.0841    3.7500    0.0000 H       1  UNL1        0.0661
     29 H           5.4641    4.3700    0.0000 H       1  UNL1        0.0661
     30 H           4.8441    3.7500    0.0000 H       1  UNL1        0.0661
@<TRIPOS>BOND
     1     1    10    1
     2     1    14    1
     3     2    10    2
     4     3     4    1
     5     3     5    1
     6     3    15    1
     7     3    16    1
     8     4     6    1
     9     4    17    1
    10     4    18    1
    11     5     7    1
    12     5    19    1
    13     5    20    1
    14     6    10    1
    15     6    21    1
    16     6    22    1
    17     7     8   ar
    18     7     9   ar
    19     8    11   ar
    20     8    23    1
    21     9    12   ar
    22     9    24    1
    23    11    13   ar
    24    11    25    1
    25    12    13   ar
    26    12    26    1
    27    13    27    1
    28    14    28    1
    29    14    29    1
    30    14    30    1
