@<TRIPOS>MOLECULE
IMPHY013787
 53 55 0 0 0
SMALL
GASTEIGER

@<TRIPOS>ATOM
      1 O           8.9942   -2.1016    0.0000 O.3     1  UNL1       -0.4855
      2 O           7.2458    0.9330    0.0000 O.3     1  UNL1       -0.5063
      3 C           9.8602   -0.6016    0.0000 C.3     1  UNL1        0.0091
      4 C           8.9942   -0.1016    0.0000 C.3     1  UNL1        0.0158
      5 C           9.8602   -1.6016    0.0000 C.3     1  UNL1        0.1087
      6 C          10.7702   -0.0948    0.0000 C.3     1  UNL1       -0.0421
      7 C           8.1282   -0.6016    0.0000 C.ar    1  UNL1        0.0428
      8 C          10.7783    0.9468    0.0000 C.3     1  UNL1       -0.0316
      9 C           8.9781    0.9399    0.0000 C.2     1  UNL1       -0.0770
     10 C           9.8762    1.4676    0.0000 C.2     1  UNL1       -0.0759
     11 C           8.1282   -1.6016    0.0000 C.ar    1  UNL1        0.1288
     12 C          10.3602   -2.4676    0.0000 C.3     1  UNL1       -0.0249
     13 C          10.8602   -1.6016    0.0000 C.3     1  UNL1       -0.0249
     14 C           7.2342   -0.0670    0.0000 C.ar    1  UNL1        0.1243
     15 C           7.2342   -2.1363    0.0000 C.ar    1  UNL1       -0.0162
     16 C           9.8723    2.4676    0.0000 C.3     1  UNL1       -0.0438
     17 C           6.3282   -1.6224    0.0000 C.ar    1  UNL1       -0.0404
     18 C           6.3282   -0.5808    0.0000 C.ar    1  UNL1       -0.0165
     19 C           5.4641   -2.1258    0.0000 C.3     1  UNL1       -0.0275
     20 C           4.5961   -1.6291    0.0000 C.3     1  UNL1       -0.0491
     21 C           3.7320   -2.1324    0.0000 C.3     1  UNL1       -0.0530
     22 C           2.8641   -1.6358    0.0000 C.3     1  UNL1       -0.0559
     23 C           2.0000   -2.1391    0.0000 C.3     1  UNL1       -0.0653
     24 H          10.5931   -1.0323    0.0000 H       1  UNL1        0.0348
     25 H           9.7270    0.3290    0.0000 H       1  UNL1        0.0398
     26 H          10.9748   -0.6801    0.0000 H       1  UNL1        0.0272
     27 H          11.3819    0.0066    0.0000 H       1  UNL1        0.0272
     28 H          11.3883    0.8360    0.0000 H       1  UNL1        0.0310
     29 H          10.9918    1.5289    0.0000 H       1  UNL1        0.0310
     30 H           8.4377    1.2437    0.0000 H       1  UNL1        0.0578
     31 H           9.8233   -2.7776    0.0000 H       1  UNL1        0.0268
     32 H          10.6702   -3.0046    0.0000 H       1  UNL1        0.0268
     33 H          10.8972   -2.1576    0.0000 H       1  UNL1        0.0268
     34 H          10.8602   -2.2216    0.0000 H       1  UNL1        0.0268
     35 H          11.4802   -1.6016    0.0000 H       1  UNL1        0.0268
     36 H          10.8602   -0.9816    0.0000 H       1  UNL1        0.0268
     37 H           7.2414   -2.7562    0.0000 H       1  UNL1        0.0657
     38 H          10.4923    2.4700    0.0000 H       1  UNL1        0.0274
     39 H           9.8699    3.0876    0.0000 H       1  UNL1        0.0274
     40 H           9.2523    2.4652    0.0000 H       1  UNL1        0.0274
     41 H           5.7924   -0.2687    0.0000 H       1  UNL1        0.0657
     42 H           5.0674   -2.6022    0.0000 H       1  UNL1        0.0313
     43 H           5.8644   -2.5992    0.0000 H       1  UNL1        0.0313
     44 H           4.9928   -1.1526    0.0000 H       1  UNL1        0.0268
     45 H           4.1958   -1.1557    0.0000 H       1  UNL1        0.0268
     46 H           6.7125    1.2492    0.0000 H       1  UNL1        0.2921
     47 H           3.3353   -2.6089    0.0000 H       1  UNL1        0.0265
     48 H           4.1324   -2.6059    0.0000 H       1  UNL1        0.0265
     49 H           3.2608   -1.1593    0.0000 H       1  UNL1        0.0263
     50 H           2.4637   -1.1624    0.0000 H       1  UNL1        0.0263
     51 H           1.6879   -1.6034    0.0000 H       1  UNL1        0.0230
     52 H           1.4643   -2.4512    0.0000 H       1  UNL1        0.0230
     53 H           2.3121   -2.6748    0.0000 H       1  UNL1        0.0230
@<TRIPOS>BOND
     1     1     5    1
     2     1    11    1
     3     2    14    1
     4     2    46    1
     5     3     4    1
     6     3     5    1
     7     3     6    1
     8     3    24    1
     9     4     7    1
    10     4     9    1
    11     4    25    1
    12     5    12    1
    13     5    13    1
    14     6     8    1
    15     6    26    1
    16     6    27    1
    17     7    11   ar
    18     7    14   ar
    19     8    10    1
    20     8    28    1
    21     8    29    1
    22     9    10    2
    23     9    30    1
    24    10    16    1
    25    11    15   ar
    26    12    31    1
    27    12    32    1
    28    12    33    1
    29    13    34    1
    30    13    35    1
    31    13    36    1
    32    14    18   ar
    33    15    17   ar
    34    15    37    1
    35    16    38    1
    36    16    39    1
    37    16    40    1
    38    17    18   ar
    39    17    19    1
    40    18    41    1
    41    19    20    1
    42    19    42    1
    43    19    43    1
    44    20    21    1
    45    20    44    1
    46    20    45    1
    47    21    22    1
    48    21    47    1
    49    21    48    1
    50    22    23    1
    51    22    49    1
    52    22    50    1
    53    23    51    1
    54    23    52    1
    55    23    53    1
