@<TRIPOS>MOLECULE
IMPHY003020
 57 59 0 0 0
SMALL
GASTEIGER

@<TRIPOS>ATOM
      1 O           8.1424    0.0408    0.0000 O.3     1  UNL1       -0.4512
      2 O           6.3301    2.8455    0.0000 O.3     1  UNL1       -0.5055
      3 O           4.5981   -0.1545    0.0000 O.3     1  UNL1       -0.5062
      4 O           8.4530    2.6008    0.0000 O.2     1  UNL1       -0.2831
      5 O          12.7260   -0.8865    0.0000 O.3     1  UNL1       -0.5031
      6 O          11.7260   -2.6186    0.0000 O.3     1  UNL1       -0.5033
      7 C           7.1962    1.3455    0.0000 C.ar    1  UNL1        0.1093
      8 C           5.4641    1.3455    0.0000 C.ar    1  UNL1        0.0400
      9 C           7.1962    0.3455    0.0000 C.ar    1  UNL1        0.1465
     10 C           6.3301    1.8455    0.0000 C.ar    1  UNL1        0.1382
     11 C           8.7260    0.8455    0.0000 C.2     1  UNL1        0.1763
     12 C           8.1424    1.6502    0.0000 C.2     1  UNL1        0.2350
     13 C          10.2260   -0.0205    0.0000 C.ar    1  UNL1       -0.0143
     14 C           4.5981    1.8455    0.0000 C.3     1  UNL1       -0.0023
     15 C          11.2260   -0.0205    0.0000 C.ar    1  UNL1        0.0087
     16 C           5.4641    0.3455    0.0000 C.ar    1  UNL1        0.1273
     17 C           6.3301   -0.1545    0.0000 C.ar    1  UNL1        0.0234
     18 C           9.7260    0.8455    0.0000 C.2     1  UNL1       -0.0079
     19 C          11.7260    0.8455    0.0000 C.3     1  UNL1       -0.0051
     20 C          11.7260   -0.8865    0.0000 C.ar    1  UNL1        0.1623
     21 C           9.7260   -0.8865    0.0000 C.ar    1  UNL1       -0.0505
     22 C           3.7320    1.3455    0.0000 C.2     1  UNL1       -0.0807
     23 C          11.2260   -1.7526    0.0000 C.ar    1  UNL1        0.1585
     24 C          12.7260    0.8455    0.0000 C.2     1  UNL1       -0.0808
     25 C          10.2260   -1.7526    0.0000 C.ar    1  UNL1       -0.0160
     26 C           2.8660    1.8455    0.0000 C.2     1  UNL1       -0.0793
     27 C          13.2260    1.7115    0.0000 C.2     1  UNL1       -0.0793
     28 C           2.0000    1.3455    0.0000 C.3     1  UNL1       -0.0440
     29 C           2.8660    2.8455    0.0000 C.3     1  UNL1       -0.0440
     30 C          14.2260    1.7115    0.0000 C.3     1  UNL1       -0.0440
     31 C          12.7260    2.5776    0.0000 C.3     1  UNL1       -0.0440
     32 H           4.9966    2.3205    0.0000 H       1  UNL1        0.0358
     33 H           4.1996    2.3205    0.0000 H       1  UNL1        0.0358
     34 H           6.3301   -0.7745    0.0000 H       1  UNL1        0.0691
     35 H          10.0360    1.3824    0.0000 H       1  UNL1        0.0661
     36 H          11.8336    1.4561    0.0000 H       1  UNL1        0.0357
     37 H          11.1434    1.0576    0.0000 H       1  UNL1        0.0357
     38 H           9.1060   -0.8865    0.0000 H       1  UNL1        0.0625
     39 H           3.7320    0.7255    0.0000 H       1  UNL1        0.0575
     40 H          13.0360    0.3086    0.0000 H       1  UNL1        0.0575
     41 H           9.9160   -2.2895    0.0000 H       1  UNL1        0.0655
     42 H           5.7932    3.1555    0.0000 H       1  UNL1        0.2922
     43 H           4.5981   -0.7745    0.0000 H       1  UNL1        0.2921
     44 H           1.6900    1.8824    0.0000 H       1  UNL1        0.0274
     45 H           1.4631    1.0355    0.0000 H       1  UNL1        0.0274
     46 H           2.3100    0.8086    0.0000 H       1  UNL1        0.0274
     47 H           3.4860    2.8455    0.0000 H       1  UNL1        0.0274
     48 H           2.8660    3.4655    0.0000 H       1  UNL1        0.0274
     49 H           2.2460    2.8455    0.0000 H       1  UNL1        0.0274
     50 H          14.2260    1.0915    0.0000 H       1  UNL1        0.0274
     51 H          14.8460    1.7115    0.0000 H       1  UNL1        0.0274
     52 H          13.2629    2.8876    0.0000 H       1  UNL1        0.0274
     53 H          12.4160    3.1145    0.0000 H       1  UNL1        0.0274
     54 H          12.1890    2.2676    0.0000 H       1  UNL1        0.0274
     55 H          14.2260    2.3315    0.0000 H       1  UNL1        0.0274
     56 H          13.0360   -1.4235    0.0000 H       1  UNL1        0.2923
     57 H          11.4160   -3.1555    0.0000 H       1  UNL1        0.2923
@<TRIPOS>BOND
     1     1     9    1
     2     1    11    1
     3     2    10    1
     4     2    42    1
     5     3    16    1
     6     3    43    1
     7     4    12    2
     8     5    20    1
     9     5    56    1
    10     6    23    1
    11     6    57    1
    12     7     9   ar
    13     7    10   ar
    14     7    12    1
    15     8    10   ar
    16     8    14    1
    17     8    16   ar
    18     9    17   ar
    19    11    12    1
    20    11    18    2
    21    13    15   ar
    22    13    18    1
    23    13    21   ar
    24    14    22    1
    25    14    32    1
    26    14    33    1
    27    15    19    1
    28    15    20   ar
    29    16    17   ar
    30    17    34    1
    31    18    35    1
    32    19    24    1
    33    19    36    1
    34    19    37    1
    35    20    23   ar
    36    21    25   ar
    37    21    38    1
    38    22    26    2
    39    22    39    1
    40    23    25   ar
    41    24    27    2
    42    24    40    1
    43    25    41    1
    44    26    28    1
    45    26    29    1
    46    27    30    1
    47    27    31    1
    48    28    44    1
    49    28    45    1
    50    28    46    1
    51    29    47    1
    52    29    48    1
    53    29    49    1
    54    30    50    1
    55    30    51    1
    56    30    55    1
    57    31    52    1
    58    31    53    1
    59    31    54    1
