@<TRIPOS>MOLECULE
IMPHY001947
 113 118 0 0 0
SMALL
GASTEIGER

@<TRIPOS>ATOM
      1 O           6.8671   -0.4843    0.0000 O.3     1  UNL1       -0.4599
      2 O          14.0264    5.6743    0.0000 O.3     1  UNL1       -0.4802
      3 O          12.2945    5.6943    0.0000 O.2     1  UNL1       -0.2504
      4 O           7.7331   -1.9843    0.0000 O.2     1  UNL1       -0.2493
      5 O           6.8671   -3.4843    0.0000 O.3     1  UNL1       -0.2973
      6 O           4.2690   -2.9843    0.0000 O.3     1  UNL1       -0.3488
      7 O           6.0010   -4.9843    0.0000 O.3     1  UNL1       -0.3851
      8 O           4.2690   -5.9843    0.0000 O.3     1  UNL1       -0.3864
      9 O           2.5369   -4.9843    0.0000 O.3     1  UNL1       -0.3865
     10 O           2.5369   -1.9843    0.0000 O.3     1  UNL1       -0.3924
     11 N           6.0010   -2.9843    0.0000 N.3     1  UNL1       -0.1463
     12 C          10.4870    2.6462    0.0000 C.3     1  UNL1       -0.0231
     13 C          11.3550    3.1428    0.0000 C.3     1  UNL1       -0.0232
     14 C          10.4832    1.6462    0.0000 C.3     1  UNL1       -0.0294
     15 C          12.2191    2.6395    0.0000 C.3     1  UNL1       -0.0307
     16 C           9.5872    1.1150    0.0000 C.3     1  UNL1       -0.0252
     17 C          13.1310    3.1428    0.0000 C.3     1  UNL1       -0.0154
     18 C           8.6831    1.6323    0.0000 C.3     1  UNL1       -0.0268
     19 C          13.1431    4.1844    0.0000 C.3     1  UNL1        0.0712
     20 C           9.5952    3.1843    0.0000 C.3     1  UNL1       -0.0466
     21 C          11.3473    1.1429    0.0000 C.3     1  UNL1       -0.0489
     22 C          11.3429    4.1844    0.0000 C.3     1  UNL1       -0.0458
     23 C          12.2152    1.6395    0.0000 C.3     1  UNL1       -0.0491
     24 C           8.6871    2.6740    0.0000 C.3     1  UNL1       -0.0486
     25 C          12.2430    4.7087    0.0000 C.3     1  UNL1       -0.0364
     26 C           7.7373    1.1007    0.0000 C.3     1  UNL1        0.0055
     27 C          14.1129    2.8141    0.0000 C.3     1  UNL1       -0.0163
     28 C           9.6081    0.0302    0.0000 C.3     1  UNL1       -0.0437
     29 C          10.1486    3.5872    0.0000 C.3     1  UNL1       -0.0588
     30 C          10.7152    3.9114    0.0000 C.3     1  UNL1       -0.0588
     31 C          14.1323    4.4904    0.0000 C.3     1  UNL1       -0.0364
     32 C          14.7305    3.6452    0.0000 C.3     1  UNL1       -0.0452
     33 C          10.4551    0.6183    0.0000 C.3     1  UNL1       -0.0590
     34 C           7.7331    0.0157    0.0000 C.3     1  UNL1        0.1085
     35 C           8.6748   -0.5231    0.0000 C.3     1  UNL1       -0.0146
     36 C          13.1546    5.1844    0.0000 C.2     1  UNL1        0.3112
     37 C           6.7373    1.1084    0.0000 C.3     1  UNL1       -0.0562
     38 C           7.2440    1.9706    0.0000 C.3     1  UNL1       -0.0562
     39 C          14.4126    1.8600    0.0000 C.2     1  UNL1       -0.0763
     40 C          15.3886    1.6425    0.0000 C.3     1  UNL1       -0.0438
     41 C          13.7361    1.1235    0.0000 C.2     1  UNL1       -0.0994
     42 C           6.8671   -1.4843    0.0000 C.2     1  UNL1        0.3240
     43 C           6.0010   -1.9843    0.0000 C.3     1  UNL1        0.1245
     44 C           5.1350   -3.4843    0.0000 C.3     1  UNL1        0.1633
     45 C           5.1350   -4.4843    0.0000 C.3     1  UNL1        0.1250
     46 C           4.2690   -4.9843    0.0000 C.3     1  UNL1        0.1131
     47 C           3.4030   -3.4843    0.0000 C.3     1  UNL1        0.1121
     48 C           3.4030   -4.4843    0.0000 C.3     1  UNL1        0.1118
     49 C           7.7331   -2.9843    0.0000 C.3     1  UNL1        0.0584
     50 C           2.5369   -2.9843    0.0000 C.3     1  UNL1        0.0730
     51 H          11.0213    1.9541    0.0000 H       1  UNL1        0.0312
     52 H          12.7524    2.3233    0.0000 H       1  UNL1        0.0309
     53 H          13.1871    2.5254    0.0000 H       1  UNL1        0.0320
     54 H           8.1486    1.9464    0.0000 H       1  UNL1        0.0312
     55 H          10.0016    3.6525    0.0000 H       1  UNL1        0.0271
     56 H           9.2034    3.6648    0.0000 H       1  UNL1        0.0271
     57 H          10.9469    0.6695    0.0000 H       1  UNL1        0.0268
     58 H          11.7440    0.6664    0.0000 H       1  UNL1        0.0268
     59 H          11.1272    4.7656    0.0000 H       1  UNL1        0.0271
     60 H          10.7334    4.0713    0.0000 H       1  UNL1        0.0271
     61 H          12.4250    1.0561    0.0000 H       1  UNL1        0.0268
     62 H          12.8262    1.7448    0.0000 H       1  UNL1        0.0268
     63 H           8.4803    3.2584    0.0000 H       1  UNL1        0.0268
     64 H           8.0759    2.5702    0.0000 H       1  UNL1        0.0268
     65 H          12.6421    5.1831    0.0000 H       1  UNL1        0.0276
     66 H          11.8439    5.1831    0.0000 H       1  UNL1        0.0276
     67 H          14.7242    2.7108    0.0000 H       1  UNL1        0.0348
     68 H           9.8284   -0.5494    0.0000 H       1  UNL1        0.0272
     69 H          10.2168    0.1480    0.0000 H       1  UNL1        0.0272
     70 H          10.7321    3.7970    0.0000 H       1  UNL1        0.0235
     71 H           9.9388    4.1706    0.0000 H       1  UNL1        0.0235
     72 H           9.5652    3.3774    0.0000 H       1  UNL1        0.0235
     73 H          11.1916    4.3081    0.0000 H       1  UNL1        0.0235
     74 H          10.3185    4.3878    0.0000 H       1  UNL1        0.0235
     75 H          10.2387    3.5147    0.0000 H       1  UNL1        0.0235
     76 H          14.6732    4.7934    0.0000 H       1  UNL1        0.0276
     77 H          13.8878    5.0602    0.0000 H       1  UNL1        0.0276
     78 H          15.1865    3.2252    0.0000 H       1  UNL1        0.0271
     79 H          15.1961    4.0546    0.0000 H       1  UNL1        0.0271
     80 H          10.1472    0.0802    0.0000 H       1  UNL1        0.0235
     81 H          10.9933    0.3104    0.0000 H       1  UNL1        0.0235
     82 H          10.7631    1.1565    0.0000 H       1  UNL1        0.0235
     83 H           7.1968    0.3268    0.0000 H       1  UNL1        0.0739
     84 H           8.2793   -1.0006    0.0000 H       1  UNL1        0.0301
     85 H           9.0776   -0.9945    0.0000 H       1  UNL1        0.0301
     86 H           7.7833    2.2764    0.0000 H       1  UNL1        0.0236
     87 H           6.7421    1.7284    0.0000 H       1  UNL1        0.0236
     88 H           6.1173    1.1132    0.0000 H       1  UNL1        0.0236
     89 H           6.7325    0.4885    0.0000 H       1  UNL1        0.0236
     90 H           6.9381    2.5099    0.0000 H       1  UNL1        0.0236
     91 H           6.7046    1.6647    0.0000 H       1  UNL1        0.0236
     92 H          15.2537    1.0373    0.0000 H       1  UNL1        0.0274
     93 H          15.9938    1.5076    0.0000 H       1  UNL1        0.0274
     94 H          15.5235    2.2476    0.0000 H       1  UNL1        0.0274
     95 H          14.0336    6.2943    0.0000 H       1  UNL1        0.2951
     96 H          13.1310    1.2583    0.0000 H       1  UNL1        0.0534
     97 H          13.9219    0.5320    0.0000 H       1  UNL1        0.0534
     98 H           5.7890   -1.4016    0.0000 H       1  UNL1        0.0566
     99 H           5.3905   -2.0919    0.0000 H       1  UNL1        0.0566
    100 H           5.1350   -2.8643    0.0000 H       1  UNL1        0.0817
    101 H           5.1350   -5.1043    0.0000 H       1  UNL1        0.0661
    102 H           3.7320   -5.2943    0.0000 H       1  UNL1        0.0647
    103 H           3.4030   -2.8643    0.0000 H       1  UNL1        0.0646
    104 H           2.8660   -4.1743    0.0000 H       1  UNL1        0.0647
    105 H           8.0431   -3.5212    0.0000 H       1  UNL1        0.0544
    106 H           8.2700   -2.6743    0.0000 H       1  UNL1        0.0544
    107 H           7.4231   -2.4473    0.0000 H       1  UNL1        0.0544
    108 H           6.0010   -5.6043    0.0000 H       1  UNL1        0.2101
    109 H           1.9264   -2.8766    0.0000 H       1  UNL1        0.0584
    110 H           2.3249   -3.5669    0.0000 H       1  UNL1        0.0584
    111 H           3.7320   -6.2943    0.0000 H       1  UNL1        0.2100
    112 H           2.0000   -4.6743    0.0000 H       1  UNL1        0.2100
    113 H           2.0000   -1.6743    0.0000 H       1  UNL1        0.2095
@<TRIPOS>BOND
     1    34     1    1
     2     1    42    1
     3     2    36    1
     4     2    95    1
     5     3    36    2
     6     4    42    2
     7     5    11    1
     8     5    49    1
     9     6    44    1
    10     6    47    1
    11    45     7    1
    12     7   108    1
    13    46     8    1
    14     8   111    1
    15    48     9    1
    16     9   112    1
    17    10    50    1
    18    10   113    1
    19    11    43    1
    20    11    44    1
    21    12    13    1
    22    12    14    1
    23    12    20    1
    24    12    29    1
    25    13    15    1
    26    13    22    1
    27    13    30    1
    28    14    16    1
    29    14    21    1
    30    14    51    1
    31    15    17    1
    32    15    23    1
    33    15    52    1
    34    16    18    1
    35    16    28    1
    36    16    33    1
    37    17    19    1
    38    17    27    1
    39    17    53    1
    40    18    24    1
    41    18    26    1
    42    18    54    1
    43    19    25    1
    44    19    31    1
    45    19    36    1
    46    20    24    1
    47    20    55    1
    48    20    56    1
    49    21    23    1
    50    21    57    1
    51    21    58    1
    52    22    25    1
    53    22    59    1
    54    22    60    1
    55    23    61    1
    56    23    62    1
    57    24    63    1
    58    24    64    1
    59    25    65    1
    60    25    66    1
    61    26    34    1
    62    26    37    1
    63    26    38    1
    64    27    32    1
    65    27    39    1
    66    27    67    1
    67    28    35    1
    68    28    68    1
    69    28    69    1
    70    29    70    1
    71    29    71    1
    72    29    72    1
    73    30    73    1
    74    30    74    1
    75    30    75    1
    76    31    32    1
    77    31    76    1
    78    31    77    1
    79    32    78    1
    80    32    79    1
    81    33    80    1
    82    33    81    1
    83    33    82    1
    84    34    35    1
    85    34    83    1
    86    35    84    1
    87    35    85    1
    88    37    87    1
    89    37    88    1
    90    37    89    1
    91    38    86    1
    92    38    90    1
    93    38    91    1
    94    39    40    1
    95    39    41    2
    96    40    92    1
    97    40    93    1
    98    40    94    1
    99    41    96    1
   100    41    97    1
   101    42    43    1
   102    43    98    1
   103    43    99    1
   104    44    45    1
   105    44   100    1
   106    45    46    1
   107    45   101    1
   108    46    48    1
   109    46   102    1
   110    47    48    1
   111    47    50    1
   112    47   103    1
   113    48   104    1
   114    49   105    1
   115    49   106    1
   116    49   107    1
   117    50   109    1
   118    50   110    1
