@<TRIPOS>MOLECULE
IMPHY008120
 61 63 0 0 0
SMALL
GASTEIGER

@<TRIPOS>ATOM
      1 O           6.0682    0.0272    0.0000 O.3     1  UNL1       -0.4826
      2 O           6.0682    3.0272    0.0000 O.2     1  UNL1       -0.2918
      3 O           6.9343   -1.4728    0.0000 O.3     1  UNL1       -0.5063
      4 O          10.3984   -1.4728    0.0000 O.3     1  UNL1       -0.4947
      5 O           2.5381    0.0031    0.0000 O.3     1  UNL1       -0.5064
      6 C           6.9343    0.5272    0.0000 C.3     1  UNL1        0.1355
      7 C           6.9343    1.5272    0.0000 C.3     1  UNL1        0.0520
      8 C           7.8003    0.0272    0.0000 C.ar    1  UNL1        0.0350
      9 C           5.2022    0.5272    0.0000 C.ar    1  UNL1        0.1388
     10 C           5.2022    1.5272    0.0000 C.ar    1  UNL1        0.0597
     11 C           6.0682    2.0272    0.0000 C.2     1  UNL1        0.1705
     12 C           4.3083   -0.0074    0.0000 C.ar    1  UNL1        0.0400
     13 C           8.6663    0.5272    0.0000 C.ar    1  UNL1       -0.0446
     14 C           7.8003   -0.9728    0.0000 C.ar    1  UNL1        0.1270
     15 C           9.5323    0.0272    0.0000 C.ar    1  UNL1       -0.0014
     16 C           4.3083    2.0619    0.0000 C.ar    1  UNL1       -0.0443
     17 C           4.3198   -1.0074    0.0000 C.3     1  UNL1       -0.0023
     18 C           3.4022    0.5064    0.0000 C.ar    1  UNL1        0.1238
     19 C           9.5323   -0.9728    0.0000 C.ar    1  UNL1        0.1270
     20 C           8.6663   -1.4728    0.0000 C.ar    1  UNL1        0.0222
     21 C           3.4022    1.5481    0.0000 C.ar    1  UNL1       -0.0190
     22 C          10.3984    0.5272    0.0000 C.3     1  UNL1       -0.0058
     23 C           3.4597   -1.5173    0.0000 C.2     1  UNL1       -0.0807
     24 C          10.3984    1.5272    0.0000 C.2     1  UNL1       -0.0809
     25 C           3.4712   -2.5173    0.0000 C.2     1  UNL1       -0.0793
     26 C          11.2644    2.0272    0.0000 C.2     1  UNL1       -0.0793
     27 C           2.6110   -3.0272    0.0000 C.3     1  UNL1       -0.0440
     28 C           4.3430   -3.0072    0.0000 C.3     1  UNL1       -0.0440
     29 C          10.3984   -2.4728    0.0000 C.3     1  UNL1        0.0788
     30 C          11.2644    3.0272    0.0000 C.3     1  UNL1       -0.0440
     31 C          12.1304    1.5272    0.0000 C.3     1  UNL1       -0.0440
     32 H           6.9343   -0.0928    0.0000 H       1  UNL1        0.0790
     33 H           7.5449    1.4196    0.0000 H       1  UNL1        0.0385
     34 H           7.1463    2.1098    0.0000 H       1  UNL1        0.0385
     35 H           8.6663    1.1472    0.0000 H       1  UNL1        0.0627
     36 H           4.3154    2.6819    0.0000 H       1  UNL1        0.0627
     37 H           4.5386   -1.5875    0.0000 H       1  UNL1        0.0358
     38 H           4.9291   -0.8926    0.0000 H       1  UNL1        0.0358
     39 H           8.6663   -2.0928    0.0000 H       1  UNL1        0.0691
     40 H          10.6104   -0.0554    0.0000 H       1  UNL1        0.0357
     41 H          11.0090    0.6349    0.0000 H       1  UNL1        0.0357
     42 H           2.8665    1.8601    0.0000 H       1  UNL1        0.0654
     43 H           2.9192   -1.2136    0.0000 H       1  UNL1        0.0575
     44 H           9.8614    1.8372    0.0000 H       1  UNL1        0.0575
     45 H           6.9343   -2.0928    0.0000 H       1  UNL1        0.2921
     46 H           2.0000    0.3110    0.0000 H       1  UNL1        0.2921
     47 H           2.2948   -2.4939    0.0000 H       1  UNL1        0.0274
     48 H           2.0777   -3.3434    0.0000 H       1  UNL1        0.0274
     49 H           2.9272   -3.5606    0.0000 H       1  UNL1        0.0274
     50 H           4.0392   -3.5477    0.0000 H       1  UNL1        0.0274
     51 H           4.8835   -3.3110    0.0000 H       1  UNL1        0.0274
     52 H           4.6468   -2.4667    0.0000 H       1  UNL1        0.0274
     53 H           9.7784   -2.4728    0.0000 H       1  UNL1        0.0660
     54 H          10.3984   -3.0928    0.0000 H       1  UNL1        0.0660
     55 H          11.0184   -2.4728    0.0000 H       1  UNL1        0.0660
     56 H          11.8844    3.0272    0.0000 H       1  UNL1        0.0274
     57 H          11.8204    0.9903    0.0000 H       1  UNL1        0.0274
     58 H          12.6674    1.2172    0.0000 H       1  UNL1        0.0274
     59 H          12.4404    2.0642    0.0000 H       1  UNL1        0.0274
     60 H          11.2644    3.6472    0.0000 H       1  UNL1        0.0274
     61 H          10.6444    3.0272    0.0000 H       1  UNL1        0.0274
@<TRIPOS>BOND
     1     1     6    1
     2     1     9    1
     3     2    11    2
     4     3    14    1
     5     3    45    1
     6     4    19    1
     7     4    29    1
     8     5    18    1
     9     5    46    1
    10     6     7    1
    11     6     8    1
    12     6    32    1
    13     7    11    1
    14     7    33    1
    15     7    34    1
    16     8    13   ar
    17     8    14   ar
    18     9    10   ar
    19     9    12   ar
    20    10    11    1
    21    10    16   ar
    22    12    17    1
    23    12    18   ar
    24    13    15   ar
    25    13    35    1
    26    14    20   ar
    27    15    19   ar
    28    15    22    1
    29    16    21   ar
    30    16    36    1
    31    17    23    1
    32    17    37    1
    33    17    38    1
    34    18    21   ar
    35    19    20   ar
    36    20    39    1
    37    21    42    1
    38    22    24    1
    39    22    40    1
    40    22    41    1
    41    23    25    2
    42    23    43    1
    43    24    26    2
    44    24    44    1
    45    25    27    1
    46    25    28    1
    47    26    30    1
    48    26    31    1
    49    27    47    1
    50    27    48    1
    51    27    49    1
    52    28    50    1
    53    28    51    1
    54    28    52    1
    55    29    53    1
    56    29    54    1
    57    29    55    1
    58    30    56    1
    59    30    60    1
    60    30    61    1
    61    31    57    1
    62    31    58    1
    63    31    59    1
