@<TRIPOS>MOLECULE
IMPHY016957
 15 14 0 0 0
SMALL
GASTEIGER

@<TRIPOS>ATOM
      1 S           2.5369    0.7500    0.0000 S.3     1  UNL1       -0.1751
      2 C           3.4030    0.2500    0.0000 C.3     1  UNL1       -0.0008
      3 C           4.2690    0.7500    0.0000 C.3     1  UNL1       -0.0445
      4 C           3.4030   -0.7500    0.0000 C.3     1  UNL1       -0.0536
      5 C           5.1350    0.2500    0.0000 C.3     1  UNL1       -0.0643
      6 H           2.6668   -0.1750    0.0000 H       1  UNL1        0.0407
      7 H           4.6675    1.2250    0.0000 H       1  UNL1        0.0273
      8 H           3.8705    1.2250    0.0000 H       1  UNL1        0.0273
      9 H           2.7830   -0.7500    0.0000 H       1  UNL1        0.0240
     10 H           3.4030   -1.3700    0.0000 H       1  UNL1        0.0240
     11 H           4.0230   -0.7500    0.0000 H       1  UNL1        0.0240
     12 H           4.8250   -0.2869    0.0000 H       1  UNL1        0.0230
     13 H           5.6720   -0.0600    0.0000 H       1  UNL1        0.0230
     14 H           5.4450    0.7869    0.0000 H       1  UNL1        0.0230
     15 H           2.0000    0.4400    0.0000 H       1  UNL1        0.1019
@<TRIPOS>BOND
     1     1     2    1
     2     1    15    1
     3     2     3    1
     4     2     4    1
     5     2     6    1
     6     3     5    1
     7     3     7    1
     8     3     8    1
     9     4     9    1
    10     4    10    1
    11     4    11    1
    12     5    12    1
    13     5    13    1
    14     5    14    1
