@<TRIPOS>MOLECULE
IMPHY004550
 40 42 0 0 0
SMALL
GASTEIGER

@<TRIPOS>ATOM
      1 O           6.3981   -0.1754    0.0000 O.2     1  UNL1       -0.4544
      2 O           2.8680   -0.1995    0.0000 O.3     1  UNL1       -0.4949
      3 O           8.9962   -2.6754    0.0000 O.3     1  UNL1       -0.4914
      4 O           4.6497    2.8592    0.0000 O.3     1  UNL1       -0.5058
      5 O          10.7282   -1.6754    0.0000 O.3     1  UNL1       -0.4915
      6 O           6.3981    2.8246    0.0000 O.2     1  UNL1       -0.2869
      7 C           5.5320    1.3246    0.0000 C.ar    1  UNL1        0.1055
      8 C           5.5320    0.3246    0.0000 C.ar    1  UNL1        0.1462
      9 C           7.2641    0.3246    0.0000 C.ar    1  UNL1        0.1393
     10 C           8.1301   -0.1754    0.0000 C.ar    1  UNL1        0.0211
     11 C           6.3981    1.8246    0.0000 C.ar    1  UNL1        0.1966
     12 C           7.2641    1.3246    0.0000 C.ar    1  UNL1        0.0288
     13 C           4.6381    1.8593    0.0000 C.ar    1  UNL1        0.1347
     14 C           4.6381   -0.2101    0.0000 C.ar    1  UNL1        0.0233
     15 C           8.1301   -1.1754    0.0000 C.ar    1  UNL1       -0.0056
     16 C           8.9962    0.3246    0.0000 C.ar    1  UNL1       -0.0474
     17 C           3.7320    0.3038    0.0000 C.ar    1  UNL1        0.1271
     18 C           3.7320    1.3454    0.0000 C.ar    1  UNL1        0.0225
     19 C           8.9962   -1.6754    0.0000 C.ar    1  UNL1        0.1622
     20 C           9.8622   -1.1754    0.0000 C.ar    1  UNL1        0.1615
     21 C           9.8622   -0.1754    0.0000 C.ar    1  UNL1       -0.0156
     22 C           2.0000    0.2971    0.0000 C.3     1  UNL1        0.0788
     23 C           8.1301   -3.1754    0.0000 C.3     1  UNL1        0.0790
     24 C          11.5942   -1.1754    0.0000 C.3     1  UNL1        0.0790
     25 H           7.8010    1.6346    0.0000 H       1  UNL1        0.0693
     26 H           4.6453   -0.8300    0.0000 H       1  UNL1        0.0691
     27 H           7.5932   -1.4854    0.0000 H       1  UNL1        0.0662
     28 H           8.9962    0.9446    0.0000 H       1  UNL1        0.0626
     29 H           3.1963    1.6575    0.0000 H       1  UNL1        0.0691
     30 H          10.3991    0.1346    0.0000 H       1  UNL1        0.0655
     31 H           4.1164    3.1754    0.0000 H       1  UNL1        0.2922
     32 H           2.3079    0.8352    0.0000 H       1  UNL1        0.0660
     33 H           1.4619    0.6050    0.0000 H       1  UNL1        0.0660
     34 H           1.6921   -0.2410    0.0000 H       1  UNL1        0.0660
     35 H           7.8201   -2.6385    0.0000 H       1  UNL1        0.0660
     36 H           7.5932   -3.4854    0.0000 H       1  UNL1        0.0660
     37 H           8.4401   -3.7123    0.0000 H       1  UNL1        0.0660
     38 H          11.9042   -1.7123    0.0000 H       1  UNL1        0.0660
     39 H          12.1312   -0.8654    0.0000 H       1  UNL1        0.0660
     40 H          11.2842   -0.6385    0.0000 H       1  UNL1        0.0660
@<TRIPOS>BOND
     1     1     8   ar
     2     1     9   ar
     3     2    17    1
     4     2    22    1
     5     3    19    1
     6     3    23    1
     7     4    13    1
     8     4    31    1
     9     5    20    1
    10     5    24    1
    11     6    11    2
    12     7     8   ar
    13     7    11   ar
    14     7    13   ar
    15     8    14   ar
    16     9    10    1
    17     9    12   ar
    18    10    15   ar
    19    10    16   ar
    20    11    12   ar
    21    12    25    1
    22    13    18   ar
    23    14    17   ar
    24    14    26    1
    25    15    19   ar
    26    15    27    1
    27    16    21   ar
    28    16    28    1
    29    17    18   ar
    30    18    29    1
    31    19    20   ar
    32    20    21   ar
    33    21    30    1
    34    22    32    1
    35    22    33    1
    36    22    34    1
    37    23    35    1
    38    23    36    1
    39    23    37    1
    40    24    38    1
    41    24    39    1
    42    24    40    1
