@<TRIPOS>MOLECULE
IMPHY014463
 20 21 0 0 0
SMALL
GASTEIGER

@<TRIPOS>ATOM
      1 O           3.8978   -0.8120    0.0000 O.3     1  UNL1       -0.3387
      2 O           5.7951    0.8018    0.0000 O.3     1  UNL1       -0.4540
      3 O           3.5888    1.7571    0.0000 O.3     1  UNL1       -0.3830
      4 O           6.1057   -1.7582    0.0000 O.3     1  UNL1       -0.3783
      5 O           2.3100   -0.0029    0.0000 O.3     1  UNL1       -0.3649
      6 O           7.3787   -0.0029    0.0000 O.2     1  UNL1       -0.2478
      7 C           4.8488    0.4971    0.0000 C.3     1  UNL1        0.1626
      8 C           4.8488   -0.5029    0.0000 C.3     1  UNL1        0.1373
      9 C           3.8978    0.8061    0.0000 C.3     1  UNL1        0.1449
     10 C           5.7951   -0.8077    0.0000 C.3     1  UNL1        0.1814
     11 C           3.3100   -0.0029    0.0000 C.3     1  UNL1        0.1865
     12 C           6.3787   -0.0029    0.0000 C.2     1  UNL1        0.3392
     13 H           4.8496    1.1171    0.0000 H       1  UNL1        0.0789
     14 H           4.8500   -1.3529    0.0000 H       1  UNL1        0.0667
     15 H           3.2854    0.9031    0.0000 H       1  UNL1        0.0682
     16 H           6.4075   -0.9039    0.0000 H       1  UNL1        0.0738
     17 H           3.0285    0.5495    0.0000 H       1  UNL1        0.0936
     18 H           2.9823    1.8860    0.0000 H       1  UNL1        0.2102
     19 H           6.7124   -1.8860    0.0000 H       1  UNL1        0.2106
     20 H           2.0000   -0.5399    0.0000 H       1  UNL1        0.2126
@<TRIPOS>BOND
     1     1     8    1
     2     1    11    1
     3     2     7    1
     4     2    12    1
     5     9     3    1
     6     3    18    1
     7    10     4    1
     8     4    19    1
     9     5    11    1
    10     5    20    1
    11     6    12    2
    12     7     8    1
    13     7     9    1
    14     7    13    1
    15     8    10    1
    16     8    14    1
    17     9    11    1
    18     9    15    1
    19    10    12    1
    20    10    16    1
    21    11    17    1
