@<TRIPOS>MOLECULE
IMPHY009071
 46 49 0 0 0
SMALL
GASTEIGER

@<TRIPOS>ATOM
      1 O           8.1519   -3.0382    0.0000 O.3     1  UNL1       -0.4608
      2 O           3.7698    4.5519    0.0000 O.3     1  UNL1       -0.4608
      3 O           7.2343   -4.5519    0.0000 O.2     1  UNL1       -0.2449
      4 O           2.0000    4.5141    0.0000 O.2     1  UNL1       -0.2449
      5 N           4.6199   -3.0173    0.0000 N.ar    1  UNL1       -0.2622
      6 N           2.0218    1.4827    0.0000 N.ar    1  UNL1       -0.2622
      7 C           5.4859   -0.5173    0.0000 C.3     1  UNL1       -0.0167
      8 C           4.6199   -0.0173    0.0000 C.3     1  UNL1       -0.0424
      9 C           5.4859   -1.5173    0.0000 C.ar    1  UNL1       -0.0224
     10 C           4.6199    0.9827    0.0000 C.3     1  UNL1       -0.0254
     11 C           6.3519   -2.0173    0.0000 C.ar    1  UNL1       -0.0239
     12 C           3.7538    1.4827    0.0000 C.ar    1  UNL1       -0.0252
     13 C           6.3519   -0.0173    0.0000 C.3     1  UNL1       -0.0583
     14 C           3.7538    2.4827    0.0000 C.ar    1  UNL1       -0.0241
     15 C           7.2458   -1.4827    0.0000 C.3     1  UNL1        0.0079
     16 C           6.3519   -3.0173    0.0000 C.ar    1  UNL1        0.0806
     17 C           4.6638    2.9895    0.0000 C.3     1  UNL1        0.0079
     18 C           4.6199   -2.0173    0.0000 C.ar    1  UNL1        0.0313
     19 C           8.1519   -1.9965    0.0000 C.3     1  UNL1        0.0968
     20 C           2.8878    2.9827    0.0000 C.ar    1  UNL1        0.0806
     21 C           2.8878    0.9827    0.0000 C.ar    1  UNL1        0.0310
     22 C           4.6719    4.0311    0.0000 C.3     1  UNL1        0.0968
     23 C           5.4859   -3.5173    0.0000 C.ar    1  UNL1        0.0418
     24 C           7.2458   -3.5520    0.0000 C.2     1  UNL1        0.3409
     25 C           2.0218    2.4827    0.0000 C.ar    1  UNL1        0.0418
     26 C           2.8718    4.0242    0.0000 C.2     1  UNL1        0.3409
     27 H           5.4859    0.1027    0.0000 H       1  UNL1        0.0347
     28 H           4.0093    0.0903    0.0000 H       1  UNL1        0.0274
     29 H           4.4078   -0.5999    0.0000 H       1  UNL1        0.0274
     30 H           5.2304    0.8750    0.0000 H       1  UNL1        0.0314
     31 H           4.8319    1.5653    0.0000 H       1  UNL1        0.0314
     32 H           6.6619   -0.5543    0.0000 H       1  UNL1        0.0236
     33 H           6.8888    0.2927    0.0000 H       1  UNL1        0.0236
     34 H           6.0419    0.5196    0.0000 H       1  UNL1        0.0236
     35 H           7.6395   -1.0036    0.0000 H       1  UNL1        0.0346
     36 H           6.8412   -1.0129    0.0000 H       1  UNL1        0.0346
     37 H           4.8684    2.4042    0.0000 H       1  UNL1        0.0346
     38 H           5.2755    3.0909    0.0000 H       1  UNL1        0.0346
     39 H           4.0829   -1.7073    0.0000 H       1  UNL1        0.0832
     40 H           8.7628   -2.1026    0.0000 H       1  UNL1        0.0701
     41 H           8.3610   -1.4128    0.0000 H       1  UNL1        0.0701
     42 H           2.8878    0.3627    0.0000 H       1  UNL1        0.0832
     43 H           5.2819    3.9203    0.0000 H       1  UNL1        0.0701
     44 H           4.8854    4.6132    0.0000 H       1  UNL1        0.0701
     45 H           5.4859   -4.1373    0.0000 H       1  UNL1        0.0838
     46 H           1.4848    2.7927    0.0000 H       1  UNL1        0.0838
@<TRIPOS>BOND
     1     1    19    1
     2     1    24    1
     3     2    22    1
     4     2    26    1
     5     3    24    2
     6     4    26    2
     7     5    18   ar
     8     5    23   ar
     9     6    21   ar
    10     6    25   ar
    11     7     8    1
    12     7     9    1
    13     7    13    1
    14     7    27    1
    15     8    10    1
    16     8    28    1
    17     8    29    1
    18     9    11   ar
    19     9    18   ar
    20    10    12    1
    21    10    30    1
    22    10    31    1
    23    11    15    1
    24    11    16   ar
    25    12    14   ar
    26    12    21   ar
    27    13    32    1
    28    13    33    1
    29    13    34    1
    30    14    17    1
    31    14    20   ar
    32    15    19    1
    33    15    35    1
    34    15    36    1
    35    16    23   ar
    36    16    24    1
    37    17    22    1
    38    17    37    1
    39    17    38    1
    40    18    39    1
    41    19    40    1
    42    19    41    1
    43    20    25   ar
    44    20    26    1
    45    21    42    1
    46    22    43    1
    47    22    44    1
    48    23    45    1
    49    25    46    1
