@<TRIPOS>MOLECULE
IMPHY003159
 89 94 0 0 0
SMALL
GASTEIGER

@<TRIPOS>ATOM
      1 O           8.5991    0.2143    0.0000 O.3     1  UNL1       -0.3313
      2 O          10.3312   -1.7857    0.0000 O.3     1  UNL1       -0.3366
      3 O           6.0010   -0.2857    0.0000 O.3     1  UNL1       -0.3461
      4 O           5.1350    1.2143    0.0000 O.3     1  UNL1       -0.3431
      5 O           8.5991   -2.7857    0.0000 O.3     1  UNL1       -0.3863
      6 O           6.8671   -1.7857    0.0000 O.3     1  UNL1       -0.3865
      7 O          10.3312    0.2143    0.0000 O.3     1  UNL1       -0.4532
      8 O           9.4651   -3.2857    0.0000 O.3     1  UNL1       -0.3461
      9 O          12.0632   -2.7857    0.0000 O.3     1  UNL1       -0.3841
     10 O           4.2690   -1.2857    0.0000 O.3     1  UNL1       -0.3841
     11 O           2.5369   -0.2857    0.0000 O.3     1  UNL1       -0.3864
     12 O           2.5369    1.7143    0.0000 O.3     1  UNL1       -0.3866
     13 O          12.0632   -4.7857    0.0000 O.3     1  UNL1       -0.3864
     14 O          10.3312   -5.7857    0.0000 O.3     1  UNL1       -0.3869
     15 O          11.1972    2.7143    0.0000 O.2     1  UNL1       -0.4507
     16 O           8.5991    1.2143    0.0000 O.2     1  UNL1       -0.2830
     17 O           7.6950    2.7112    0.0000 O.3     1  UNL1       -0.5058
     18 O           9.4530    5.7836    0.0000 O.3     1  UNL1       -0.5065
     19 O          14.6613   -0.2857    0.0000 O.3     1  UNL1       -0.5068
     20 C           9.4651   -1.2857    0.0000 C.3     1  UNL1        0.1519
     21 C           8.5991   -1.7857    0.0000 C.3     1  UNL1        0.1155
     22 C           7.7331   -1.2857    0.0000 C.3     1  UNL1        0.1120
     23 C           7.7331   -0.2857    0.0000 C.3     1  UNL1        0.1144
     24 C           9.4651   -0.2857    0.0000 C.3     1  UNL1        0.2315
     25 C           6.8671    0.2143    0.0000 C.3     1  UNL1        0.0796
     26 C          10.3312   -2.7857    0.0000 C.3     1  UNL1        0.1882
     27 C           5.1350    0.2143    0.0000 C.3     1  UNL1        0.1879
     28 C          11.1972   -3.2857    0.0000 C.3     1  UNL1        0.1341
     29 C           4.2690   -0.2857    0.0000 C.3     1  UNL1        0.1341
     30 C           3.4030    0.2143    0.0000 C.3     1  UNL1        0.1140
     31 C           3.4030    1.2143    0.0000 C.3     1  UNL1        0.1095
     32 C          11.1972   -4.2857    0.0000 C.3     1  UNL1        0.1137
     33 C           4.2690    1.7143    0.0000 C.3     1  UNL1        0.0873
     34 C          10.3312   -4.7857    0.0000 C.3     1  UNL1        0.1069
     35 C           9.4651   -4.2857    0.0000 C.3     1  UNL1        0.0792
     36 C           4.2690    2.7143    0.0000 C.3     1  UNL1       -0.0361
     37 C          10.3312    1.2143    0.0000 C.ar    1  UNL1        0.2138
     38 C          11.1972    1.7143    0.0000 C.ar    1  UNL1        0.1809
     39 C           9.4651    1.7143    0.0000 C.ar    1  UNL1        0.2382
     40 C           9.4651    2.7143    0.0000 C.ar    1  UNL1        0.1092
     41 C          12.0632    1.2143    0.0000 C.ar    1  UNL1        0.0213
     42 C          10.3312    3.2143    0.0000 C.ar    1  UNL1        0.1465
     43 C           8.5551    3.2212    0.0000 C.ar    1  UNL1        0.1348
     44 C          10.3472    4.2558    0.0000 C.ar    1  UNL1        0.0231
     45 C          12.9292    1.7143    0.0000 C.ar    1  UNL1       -0.0475
     46 C          12.0632    0.2143    0.0000 C.ar    1  UNL1       -0.0475
     47 C           8.5471    4.2628    0.0000 C.ar    1  UNL1        0.0223
     48 C           9.4492    4.7836    0.0000 C.ar    1  UNL1        0.1239
     49 C          13.7953    1.2143    0.0000 C.ar    1  UNL1       -0.0195
     50 C          12.9292   -0.2857    0.0000 C.ar    1  UNL1       -0.0195
     51 C          13.7953    0.2143    0.0000 C.ar    1  UNL1        0.1169
     52 H          10.0021   -0.9757    0.0000 H       1  UNL1        0.0687
     53 H           8.0622   -2.0957    0.0000 H       1  UNL1        0.0648
     54 H           7.1962   -0.9757    0.0000 H       1  UNL1        0.0647
     55 H           7.7331    0.3343    0.0000 H       1  UNL1        0.0647
     56 H           9.4651    0.3343    0.0000 H       1  UNL1        0.1084
     57 H           7.2656    0.6893    0.0000 H       1  UNL1        0.0587
     58 H           6.4685    0.6893    0.0000 H       1  UNL1        0.0587
     59 H           9.7942   -2.4757    0.0000 H       1  UNL1        0.0937
     60 H           5.1350   -0.4057    0.0000 H       1  UNL1        0.0937
     61 H          11.7341   -3.5957    0.0000 H       1  UNL1        0.0671
     62 H           3.7320   -0.5957    0.0000 H       1  UNL1        0.0671
     63 H           2.8660    0.5243    0.0000 H       1  UNL1        0.0648
     64 H           3.4030    1.8343    0.0000 H       1  UNL1        0.0646
     65 H          11.1972   -4.9057    0.0000 H       1  UNL1        0.0647
     66 H           4.8059    2.0243    0.0000 H       1  UNL1        0.0621
     67 H           9.7942   -5.0957    0.0000 H       1  UNL1        0.0643
     68 H           8.8546   -4.1780    0.0000 H       1  UNL1        0.0587
     69 H           9.2531   -4.8683    0.0000 H       1  UNL1        0.0587
     70 H           8.0622   -3.0957    0.0000 H       1  UNL1        0.2100
     71 H           6.8671   -2.4057    0.0000 H       1  UNL1        0.2100
     72 H           4.8890    2.7143    0.0000 H       1  UNL1        0.0255
     73 H           4.2690    3.3343    0.0000 H       1  UNL1        0.0255
     74 H           3.6490    2.7143    0.0000 H       1  UNL1        0.0255
     75 H          12.6002   -3.0957    0.0000 H       1  UNL1        0.2101
     76 H           3.7320   -1.5957    0.0000 H       1  UNL1        0.2101
     77 H           2.0000    0.0243    0.0000 H       1  UNL1        0.2100
     78 H           2.5369    2.3343    0.0000 H       1  UNL1        0.2100
     79 H          12.0632   -5.4057    0.0000 H       1  UNL1        0.2100
     80 H           9.7942   -6.0957    0.0000 H       1  UNL1        0.2100
     81 H          10.8877    4.5596    0.0000 H       1  UNL1        0.0691
     82 H          12.9292    2.3343    0.0000 H       1  UNL1        0.0626
     83 H          11.5263   -0.0957    0.0000 H       1  UNL1        0.0626
     84 H           8.0090    4.5707    0.0000 H       1  UNL1        0.0691
     85 H          14.3322    1.5243    0.0000 H       1  UNL1        0.0654
     86 H          12.9292   -0.9057    0.0000 H       1  UNL1        0.0654
     87 H           7.1545    3.0150    0.0000 H       1  UNL1        0.2922
     88 H           8.9173    6.0957    0.0000 H       1  UNL1        0.2921
     89 H          14.6613   -0.9057    0.0000 H       1  UNL1        0.2921
@<TRIPOS>BOND
     1     1    23    1
     2     1    24    1
     3    20     2    1
     4    26     2    1
     5     3    25    1
     6    27     3    1
     7     4    27    1
     8     4    33    1
     9    21     5    1
    10     5    70    1
    11    22     6    1
    12     6    71    1
    13    24     7    1
    14     7    37    1
    15     8    26    1
    16     8    35    1
    17    28     9    1
    18     9    75    1
    19    29    10    1
    20    10    76    1
    21    30    11    1
    22    11    77    1
    23    31    12    1
    24    12    78    1
    25    32    13    1
    26    13    79    1
    27    34    14    1
    28    14    80    1
    29    15    38   ar
    30    15    42   ar
    31    16    39    2
    32    17    43    1
    33    17    87    1
    34    18    48    1
    35    18    88    1
    36    19    51    1
    37    19    89    1
    38    20    21    1
    39    20    24    1
    40    20    52    1
    41    21    22    1
    42    21    53    1
    43    22    23    1
    44    22    54    1
    45    23    25    1
    46    23    55    1
    47    24    56    1
    48    25    57    1
    49    25    58    1
    50    26    28    1
    51    26    59    1
    52    27    29    1
    53    27    60    1
    54    28    32    1
    55    28    61    1
    56    29    30    1
    57    29    62    1
    58    30    31    1
    59    30    63    1
    60    31    33    1
    61    31    64    1
    62    32    34    1
    63    32    65    1
    64    33    36    1
    65    33    66    1
    66    34    35    1
    67    34    67    1
    68    35    68    1
    69    35    69    1
    70    36    72    1
    71    36    73    1
    72    36    74    1
    73    37    38   ar
    74    37    39   ar
    75    38    41    1
    76    39    40   ar
    77    40    42   ar
    78    40    43   ar
    79    41    45   ar
    80    41    46   ar
    81    42    44   ar
    82    43    47   ar
    83    44    48   ar
    84    44    81    1
    85    45    49   ar
    86    45    82    1
    87    46    50   ar
    88    46    83    1
    89    47    48   ar
    90    47    84    1
    91    49    51   ar
    92    49    85    1
    93    50    51   ar
    94    50    86    1
