@<TRIPOS>MOLECULE
IMPHY015488
 57 58 0 0 0
SMALL
GASTEIGER

@<TRIPOS>ATOM
      1 O           2.8660   -1.0670    0.0000 O.3     1  UNL1       -0.5062
      2 O           4.5981    1.9330    0.0000 O.3     1  UNL1       -0.5062
      3 C           2.8660   -3.0670    0.0000 C.3     1  UNL1       -0.0092
      4 C           6.3301    2.9330    0.0000 C.3     1  UNL1       -0.0092
      5 C           3.7320   -2.5670    0.0000 C.ar    1  UNL1       -0.0001
      6 C           6.3301    1.9330    0.0000 C.ar    1  UNL1       -0.0001
      7 C           4.5981   -0.0670    0.0000 C.3     1  UNL1        0.0045
      8 C           4.5981   -1.0670    0.0000 C.ar    1  UNL1       -0.0010
      9 C           5.4641    0.4330    0.0000 C.ar    1  UNL1       -0.0010
     10 C           3.7320   -1.5670    0.0000 C.ar    1  UNL1        0.1240
     11 C           5.4641    1.4330    0.0000 C.ar    1  UNL1        0.1240
     12 C           2.0000   -3.5670    0.0000 C.3     1  UNL1       -0.0559
     13 C           3.3660   -3.9330    0.0000 C.3     1  UNL1       -0.0559
     14 C           2.3660   -2.2010    0.0000 C.3     1  UNL1       -0.0559
     15 C           6.3301    3.9330    0.0000 C.3     1  UNL1       -0.0559
     16 C           7.3301    2.9330    0.0000 C.3     1  UNL1       -0.0559
     17 C           5.3301    2.9330    0.0000 C.3     1  UNL1       -0.0559
     18 C           4.5981   -3.0670    0.0000 C.ar    1  UNL1       -0.0517
     19 C           7.1962    1.4330    0.0000 C.ar    1  UNL1       -0.0517
     20 C           5.4641   -2.5670    0.0000 C.ar    1  UNL1       -0.0497
     21 C           7.1962    0.4330    0.0000 C.ar    1  UNL1       -0.0497
     22 C           5.4641   -1.5670    0.0000 C.ar    1  UNL1       -0.0519
     23 C           6.3301   -0.0670    0.0000 C.ar    1  UNL1       -0.0519
     24 C           6.3301   -3.0670    0.0000 C.3     1  UNL1       -0.0397
     25 C           8.0622   -0.0670    0.0000 C.3     1  UNL1       -0.0397
     26 H           4.3860    0.5156    0.0000 H       1  UNL1        0.0364
     27 H           3.9875   -0.1746    0.0000 H       1  UNL1        0.0364
     28 H           1.6900   -3.0300    0.0000 H       1  UNL1        0.0238
     29 H           1.4631   -3.8770    0.0000 H       1  UNL1        0.0238
     30 H           2.3100   -4.1039    0.0000 H       1  UNL1        0.0238
     31 H           2.8291   -4.2430    0.0000 H       1  UNL1        0.0238
     32 H           3.6760   -4.4700    0.0000 H       1  UNL1        0.0238
     33 H           3.9030   -3.6230    0.0000 H       1  UNL1        0.0238
     34 H           2.9030   -1.8910    0.0000 H       1  UNL1        0.0238
     35 H           2.0560   -1.6640    0.0000 H       1  UNL1        0.0238
     36 H           1.8291   -2.5110    0.0000 H       1  UNL1        0.0238
     37 H           6.9501    3.9330    0.0000 H       1  UNL1        0.0238
     38 H           6.3301    4.5530    0.0000 H       1  UNL1        0.0238
     39 H           5.7101    3.9330    0.0000 H       1  UNL1        0.0238
     40 H           7.3301    2.3130    0.0000 H       1  UNL1        0.0238
     41 H           7.9501    2.9330    0.0000 H       1  UNL1        0.0238
     42 H           7.3301    3.5530    0.0000 H       1  UNL1        0.0238
     43 H           5.3301    3.5530    0.0000 H       1  UNL1        0.0238
     44 H           4.7101    2.9330    0.0000 H       1  UNL1        0.0238
     45 H           5.3301    2.3130    0.0000 H       1  UNL1        0.0238
     46 H           4.5981   -3.6870    0.0000 H       1  UNL1        0.0624
     47 H           7.7331    1.7430    0.0000 H       1  UNL1        0.0624
     48 H           6.0010   -1.2570    0.0000 H       1  UNL1        0.0624
     49 H           6.3301   -0.6870    0.0000 H       1  UNL1        0.0624
     50 H           6.0201   -3.6039    0.0000 H       1  UNL1        0.0278
     51 H           6.8671   -3.3770    0.0000 H       1  UNL1        0.0278
     52 H           6.6401   -2.5300    0.0000 H       1  UNL1        0.0278
     53 H           7.7522   -0.6039    0.0000 H       1  UNL1        0.0278
     54 H           8.5991   -0.3770    0.0000 H       1  UNL1        0.0278
     55 H           8.3722    0.4699    0.0000 H       1  UNL1        0.0278
     56 H           2.8660   -0.4470    0.0000 H       1  UNL1        0.2922
     57 H           4.0611    1.6230    0.0000 H       1  UNL1        0.2922
@<TRIPOS>BOND
     1     1    10    1
     2     1    56    1
     3     2    11    1
     4     2    57    1
     5     3     5    1
     6     3    12    1
     7     3    13    1
     8     3    14    1
     9     4     6    1
    10     4    15    1
    11     4    16    1
    12     4    17    1
    13     5    10   ar
    14     5    18   ar
    15     6    11   ar
    16     6    19   ar
    17     7     8    1
    18     7     9    1
    19     7    26    1
    20     7    27    1
    21     8    10   ar
    22     8    22   ar
    23     9    11   ar
    24     9    23   ar
    25    12    28    1
    26    12    29    1
    27    12    30    1
    28    13    31    1
    29    13    32    1
    30    13    33    1
    31    14    34    1
    32    14    35    1
    33    14    36    1
    34    15    37    1
    35    15    38    1
    36    15    39    1
    37    16    40    1
    38    16    41    1
    39    16    42    1
    40    17    43    1
    41    17    44    1
    42    17    45    1
    43    18    20   ar
    44    18    46    1
    45    19    21   ar
    46    19    47    1
    47    20    22   ar
    48    20    24    1
    49    21    23   ar
    50    21    25    1
    51    22    48    1
    52    23    49    1
    53    24    50    1
    54    24    51    1
    55    24    52    1
    56    25    53    1
    57    25    54    1
    58    25    55    1
