@<TRIPOS>MOLECULE
IMPHY014892
 25 25 0 0 0
SMALL
GASTEIGER

@<TRIPOS>ATOM
      1 O           4.2690    1.0000    0.0000 O.3     1  UNL1       -0.3417
      2 O           4.2690   -2.0000    0.0000 O.3     1  UNL1       -0.3874
      3 O           2.5369   -1.0000    0.0000 O.3     1  UNL1       -0.3865
      4 O           6.0010    1.0000    0.0000 O.3     1  UNL1       -0.3656
      5 O           2.5369    2.0000    0.0000 O.3     1  UNL1       -0.3924
      6 N           6.0010   -1.0000    0.0000 N.3     1  UNL1       -0.3211
      7 C           4.2690   -1.0000    0.0000 C.3     1  UNL1        0.1033
      8 C           3.4030   -0.5000    0.0000 C.3     1  UNL1        0.1109
      9 C           5.1350   -0.5000    0.0000 C.3     1  UNL1        0.0851
     10 C           3.4030    0.5000    0.0000 C.3     1  UNL1        0.1129
     11 C           5.1350    0.5000    0.0000 C.3     1  UNL1        0.1744
     12 C           2.5369    1.0000    0.0000 C.3     1  UNL1        0.0730
     13 H           4.8059   -1.3100    0.0000 H       1  UNL1        0.0637
     14 H           3.4030   -1.1200    0.0000 H       1  UNL1        0.0646
     15 H           5.6720   -0.1900    0.0000 H       1  UNL1        0.0535
     16 H           3.4030    1.1200    0.0000 H       1  UNL1        0.0647
     17 H           5.1350    1.1200    0.0000 H       1  UNL1        0.0925
     18 H           1.9264    1.1077    0.0000 H       1  UNL1        0.0584
     19 H           2.3249    0.4174    0.0000 H       1  UNL1        0.0584
     20 H           6.5380   -0.6900    0.0000 H       1  UNL1        0.1187
     21 H           6.0010   -1.6200    0.0000 H       1  UNL1        0.1187
     22 H           3.7320   -2.3100    0.0000 H       1  UNL1        0.2100
     23 H           2.0000   -0.6900    0.0000 H       1  UNL1        0.2100
     24 H           6.0010    1.6200    0.0000 H       1  UNL1        0.2125
     25 H           2.0000    2.3100    0.0000 H       1  UNL1        0.2095
@<TRIPOS>BOND
     1     1    10    1
     2     1    11    1
     3     7     2    1
     4     2    22    1
     5     8     3    1
     6     3    23    1
     7     4    11    1
     8     4    24    1
     9     5    12    1
    10     5    25    1
    11     9     6    1
    12     6    20    1
    13     6    21    1
    14     7     8    1
    15     7     9    1
    16     7    13    1
    17     8    10    1
    18     8    14    1
    19     9    11    1
    20     9    15    1
    21    10    12    1
    22    10    16    1
    23    11    17    1
    24    12    18    1
    25    12    19    1
