@<TRIPOS>MOLECULE
IMPHY009260
 38 39 0 0 0
SMALL
GASTEIGER

@<TRIPOS>ATOM
      1 O           2.5369   -2.5000    0.0000 O.3     1  UNL1       -0.4885
      2 O           4.2690   -3.5000    0.0000 O.3     1  UNL1       -0.4912
      3 O           2.5369   -0.5000    0.0000 O.3     1  UNL1       -0.5027
      4 O           6.0010   -0.5000    0.0000 O.3     1  UNL1       -0.5058
      5 O           3.4030    1.0000    0.0000 O.2     1  UNL1       -0.2870
      6 C           4.2690   -0.5000    0.0000 C.ar    1  UNL1        0.1082
      7 C           3.4030   -1.0000    0.0000 C.ar    1  UNL1        0.1768
      8 C           3.4030   -2.0000    0.0000 C.ar    1  UNL1        0.2043
      9 C           5.1350   -1.0000    0.0000 C.ar    1  UNL1        0.1349
     10 C           4.2690   -2.5000    0.0000 C.ar    1  UNL1        0.1687
     11 C           5.1350   -2.0000    0.0000 C.ar    1  UNL1        0.0261
     12 C           4.2690    0.5000    0.0000 C.2     1  UNL1        0.1932
     13 C           5.1350    1.0000    0.0000 C.2     1  UNL1       -0.0135
     14 C           6.0010    2.5000    0.0000 C.ar    1  UNL1       -0.0249
     15 C           5.1350    2.0000    0.0000 C.2     1  UNL1       -0.0510
     16 C           6.8671    2.0000    0.0000 C.ar    1  UNL1       -0.0546
     17 C           6.0010    3.5000    0.0000 C.ar    1  UNL1       -0.0546
     18 C           2.5369   -3.5000    0.0000 C.3     1  UNL1        0.0791
     19 C           7.7331    2.5000    0.0000 C.ar    1  UNL1       -0.0612
     20 C           6.8671    4.0000    0.0000 C.ar    1  UNL1       -0.0612
     21 C           5.1350   -4.0000    0.0000 C.3     1  UNL1        0.0790
     22 C           7.7331    3.5000    0.0000 C.ar    1  UNL1       -0.0617
     23 H           5.6720   -2.3100    0.0000 H       1  UNL1        0.0692
     24 H           5.6720    0.6900    0.0000 H       1  UNL1        0.0656
     25 H           4.5981    2.3100    0.0000 H       1  UNL1        0.0625
     26 H           6.8671    1.3800    0.0000 H       1  UNL1        0.0623
     27 H           5.4641    3.8100    0.0000 H       1  UNL1        0.0623
     28 H           2.0000   -0.8100    0.0000 H       1  UNL1        0.2923
     29 H           6.5380   -0.8100    0.0000 H       1  UNL1        0.2922
     30 H           1.9169   -3.5000    0.0000 H       1  UNL1        0.0660
     31 H           2.5369   -4.1200    0.0000 H       1  UNL1        0.0660
     32 H           3.1569   -3.5000    0.0000 H       1  UNL1        0.0660
     33 H           8.2700    2.1900    0.0000 H       1  UNL1        0.0618
     34 H           6.8671    4.6200    0.0000 H       1  UNL1        0.0618
     35 H           4.8250   -4.5369    0.0000 H       1  UNL1        0.0660
     36 H           5.6720   -4.3100    0.0000 H       1  UNL1        0.0660
     37 H           5.4450   -3.4631    0.0000 H       1  UNL1        0.0660
     38 H           8.2700    3.8100    0.0000 H       1  UNL1        0.0618
@<TRIPOS>BOND
     1     1     8    1
     2     1    18    1
     3     2    10    1
     4     2    21    1
     5     3     7    1
     6     3    28    1
     7     4     9    1
     8     4    29    1
     9     5    12    2
    10     6     7   ar
    11     6     9   ar
    12     6    12    1
    13     7     8   ar
    14     8    10   ar
    15     9    11   ar
    16    10    11   ar
    17    11    23    1
    18    12    13    1
    19    13    15    2
    20    13    24    1
    21    14    15    1
    22    14    16   ar
    23    14    17   ar
    24    15    25    1
    25    16    19   ar
    26    16    26    1
    27    17    20   ar
    28    17    27    1
    29    18    30    1
    30    18    31    1
    31    18    32    1
    32    19    22   ar
    33    19    33    1
    34    20    22   ar
    35    20    34    1
    36    21    35    1
    37    21    36    1
    38    21    37    1
    39    22    38    1
