@<TRIPOS>MOLECULE
IMPHY007508
 47 49 0 0 0
SMALL
GASTEIGER

@<TRIPOS>ATOM
      1 O           6.0290   -0.8617    0.0000 O.2     1  UNL1       -0.4212
      2 O           2.5369   -0.8271    0.0000 O.3     1  UNL1       -0.5062
      3 O           4.2690    2.1729    0.0000 O.3     1  UNL1       -0.4943
      4 O           7.7991   -0.8512    0.0000 O.2     1  UNL1       -0.2445
      5 O           8.6709   -0.2996    0.0000 O.3     1  UNL1       -0.5060
      6 O          10.3914    2.7071    0.0000 O.3     1  UNL1       -0.5066
      7 C           4.2690   -1.8271    0.0000 C.3     1  UNL1        0.0148
      8 C           4.2690   -0.8271    0.0000 C.ar    1  UNL1        0.0465
      9 C           5.1350   -0.3271    0.0000 C.ar    1  UNL1        0.1500
     10 C           3.2690   -1.8271    0.0000 C.3     1  UNL1       -0.0521
     11 C           5.2690   -1.8271    0.0000 C.3     1  UNL1       -0.0521
     12 C           5.1350    0.6729    0.0000 C.ar    1  UNL1        0.0603
     13 C           3.4030   -0.3271    0.0000 C.ar    1  UNL1        0.1278
     14 C           4.2690   -2.8271    0.0000 C.2     1  UNL1       -0.0809
     15 C           4.2690    1.1729    0.0000 C.ar    1  UNL1        0.1342
     16 C           3.4030    0.6729    0.0000 C.ar    1  UNL1        0.0227
     17 C           6.0290    1.2076    0.0000 C.ar    1  UNL1       -0.0329
     18 C           6.9350    0.6937    0.0000 C.ar    1  UNL1        0.0708
     19 C           6.9350   -0.3479    0.0000 C.ar    1  UNL1        0.3452
     20 C           7.7991    1.1971    0.0000 C.ar    1  UNL1        0.0306
     21 C           3.4030   -3.3271    0.0000 C.2     1  UNL1       -0.1018
     22 C           8.6671    0.7004    0.0000 C.ar    1  UNL1        0.1282
     23 C           7.7953    2.1971    0.0000 C.ar    1  UNL1       -0.0469
     24 C           9.5312    1.2038    0.0000 C.ar    1  UNL1        0.0219
     25 C           3.4030    2.6729    0.0000 C.3     1  UNL1        0.0788
     26 C           8.6594    2.7004    0.0000 C.ar    1  UNL1       -0.0194
     27 C           9.5273    2.2037    0.0000 C.ar    1  UNL1        0.1204
     28 H           3.2690   -1.2071    0.0000 H       1  UNL1        0.0241
     29 H           5.2690   -2.4471    0.0000 H       1  UNL1        0.0241
     30 H           5.8890   -1.8271    0.0000 H       1  UNL1        0.0241
     31 H           5.2690   -1.2071    0.0000 H       1  UNL1        0.0241
     32 H           2.6490   -1.8271    0.0000 H       1  UNL1        0.0241
     33 H           3.2690   -2.4471    0.0000 H       1  UNL1        0.0241
     34 H           4.8059   -3.1371    0.0000 H       1  UNL1        0.0575
     35 H           2.8660    0.9829    0.0000 H       1  UNL1        0.0691
     36 H           6.0218    1.8276    0.0000 H       1  UNL1        0.0634
     37 H           2.8660   -3.0171    0.0000 H       1  UNL1        0.0532
     38 H           3.4030   -3.9471    0.0000 H       1  UNL1        0.0532
     39 H           2.0000   -0.5171    0.0000 H       1  UNL1        0.2921
     40 H           7.2571    2.5050    0.0000 H       1  UNL1        0.0626
     41 H          10.0693    0.8958    0.0000 H       1  UNL1        0.0691
     42 H           3.7130    3.2099    0.0000 H       1  UNL1        0.0660
     43 H           2.8660    2.9829    0.0000 H       1  UNL1        0.0660
     44 H           3.0930    2.1360    0.0000 H       1  UNL1        0.0660
     45 H           8.6570    3.3204    0.0000 H       1  UNL1        0.0654
     46 H           9.2090   -0.6075    0.0000 H       1  UNL1        0.2922
     47 H          10.3890    3.3271    0.0000 H       1  UNL1        0.2921
@<TRIPOS>BOND
     1     1     9   ar
     2     1    19   ar
     3     2    13    1
     4     2    39    1
     5     3    15    1
     6     3    25    1
     7     4    19    2
     8     5    22    1
     9     5    46    1
    10     6    27    1
    11     6    47    1
    12     7     8    1
    13     7    10    1
    14     7    11    1
    15     7    14    1
    16     8     9   ar
    17     8    13   ar
    18     9    12   ar
    19    10    28    1
    20    10    32    1
    21    10    33    1
    22    11    29    1
    23    11    30    1
    24    11    31    1
    25    12    15   ar
    26    12    17   ar
    27    13    16   ar
    28    14    21    2
    29    14    34    1
    30    15    16   ar
    31    16    35    1
    32    17    18   ar
    33    17    36    1
    34    18    19   ar
    35    18    20    1
    36    20    22   ar
    37    20    23   ar
    38    21    37    1
    39    21    38    1
    40    22    24   ar
    41    23    26   ar
    42    23    40    1
    43    24    27   ar
    44    24    41    1
    45    25    42    1
    46    25    43    1
    47    25    44    1
    48    26    27   ar
    49    26    45    1
