@<TRIPOS>MOLECULE
IMPHY006258
 48 49 0 0 0
SMALL
GASTEIGER

@<TRIPOS>ATOM
      1 O           2.5369    0.6377    0.0000 O.3     1  UNL1       -0.3866
      2 O           4.2690   -1.3623    0.0000 O.3     1  UNL1       -0.3890
      3 O           9.4651   -0.3623    0.0000 O.3     1  UNL1       -0.4878
      4 O          12.9572   -0.3970    0.0000 O.2     1  UNL1       -0.4220
      5 O          14.7273   -0.3865    0.0000 O.2     1  UNL1       -0.2452
      6 C           3.4030    0.1377    0.0000 C.3     1  UNL1        0.0862
      7 C           4.2690   -0.3623    0.0000 C.3     1  UNL1        0.0836
      8 C           5.1350    0.1377    0.0000 C.3     1  UNL1       -0.0205
      9 C           6.0010   -0.3623    0.0000 C.3     1  UNL1       -0.0295
     10 C           2.9030   -0.7284    0.0000 C.3     1  UNL1       -0.0339
     11 C           3.9030    1.0037    0.0000 C.3     1  UNL1       -0.0339
     12 C           6.8671    0.1377    0.0000 C.2     1  UNL1       -0.0733
     13 C           7.7331   -0.3623    0.0000 C.2     1  UNL1       -0.0481
     14 C           6.8671    1.1377    0.0000 C.3     1  UNL1       -0.0437
     15 C           8.5991    0.1377    0.0000 C.3     1  UNL1        0.1081
     16 C          10.3312    0.1377    0.0000 C.ar    1  UNL1        0.1245
     17 C          12.0632    1.1377    0.0000 C.ar    1  UNL1        0.0178
     18 C          12.0632    0.1377    0.0000 C.ar    1  UNL1        0.1425
     19 C          11.1972   -0.3623    0.0000 C.ar    1  UNL1        0.0231
     20 C          10.3312    1.1377    0.0000 C.ar    1  UNL1       -0.0191
     21 C          11.1972    1.6377    0.0000 C.ar    1  UNL1       -0.0476
     22 C          12.9572    1.6723    0.0000 C.ar    1  UNL1       -0.0443
     23 C          13.8632    1.1585    0.0000 C.ar    1  UNL1        0.0236
     24 C          13.8632    0.1169    0.0000 C.ar    1  UNL1        0.3372
     25 H           4.8059   -0.6723    0.0000 H       1  UNL1        0.0622
     26 H           5.5335    0.6126    0.0000 H       1  UNL1        0.0294
     27 H           4.7365    0.6126    0.0000 H       1  UNL1        0.0294
     28 H           5.6025   -0.8373    0.0000 H       1  UNL1        0.0311
     29 H           6.3996   -0.8373    0.0000 H       1  UNL1        0.0311
     30 H           2.3660   -0.4184    0.0000 H       1  UNL1        0.0258
     31 H           2.5930   -1.2653    0.0000 H       1  UNL1        0.0258
     32 H           3.4399   -1.0384    0.0000 H       1  UNL1        0.0258
     33 H           4.4399    0.6937    0.0000 H       1  UNL1        0.0258
     34 H           4.2130    1.5406    0.0000 H       1  UNL1        0.0258
     35 H           3.3660    1.3137    0.0000 H       1  UNL1        0.0258
     36 H           2.0000    0.3277    0.0000 H       1  UNL1        0.2102
     37 H           3.7320   -1.6723    0.0000 H       1  UNL1        0.2099
     38 H           7.7331   -0.9823    0.0000 H       1  UNL1        0.0605
     39 H           7.4871    1.1377    0.0000 H       1  UNL1        0.0274
     40 H           6.8671    1.7577    0.0000 H       1  UNL1        0.0274
     41 H           6.2471    1.1377    0.0000 H       1  UNL1        0.0274
     42 H           8.9976    0.6126    0.0000 H       1  UNL1        0.0742
     43 H           8.2006    0.6126    0.0000 H       1  UNL1        0.0742
     44 H          11.1972   -0.9823    0.0000 H       1  UNL1        0.0691
     45 H           9.7942    1.4477    0.0000 H       1  UNL1        0.0654
     46 H          11.1972    2.2577    0.0000 H       1  UNL1        0.0626
     47 H          12.9500    2.2923    0.0000 H       1  UNL1        0.0627
     48 H          14.3990    1.4706    0.0000 H       1  UNL1        0.0689
@<TRIPOS>BOND
     1     1     6    1
     2     1    36    1
     3     7     2    1
     4     2    37    1
     5     3    15    1
     6     3    16    1
     7     4    18   ar
     8     4    24   ar
     9     5    24    2
    10     6     7    1
    11     6    10    1
    12     6    11    1
    13     7     8    1
    14     7    25    1
    15     8     9    1
    16     8    26    1
    17     8    27    1
    18     9    12    1
    19     9    28    1
    20     9    29    1
    21    10    30    1
    22    10    31    1
    23    10    32    1
    24    11    33    1
    25    11    34    1
    26    11    35    1
    27    12    13    2
    28    12    14    1
    29    13    15    1
    30    13    38    1
    31    14    39    1
    32    14    40    1
    33    14    41    1
    34    15    42    1
    35    15    43    1
    36    16    19   ar
    37    16    20   ar
    38    17    18   ar
    39    17    21   ar
    40    17    22   ar
    41    18    19   ar
    42    19    44    1
    43    20    21   ar
    44    20    45    1
    45    21    46    1
    46    22    23   ar
    47    22    47    1
    48    23    24   ar
    49    23    48    1
