@<TRIPOS>MOLECULE
IMPHY000711
 26 27 0 0 0
SMALL
GASTEIGER

@<TRIPOS>ATOM
      1 C           3.2369    0.9600    0.0000 C.3     1  UNL1       -0.0198
      2 C           3.7147   -0.9886    0.0000 C.3     1  UNL1       -0.0084
      3 C           3.9735   -0.0226    0.0000 C.3     1  UNL1       -0.0169
      4 C           2.3420   -1.5806    0.0000 C.3     1  UNL1       -0.0431
      5 C           2.0000   -0.6409    0.0000 C.3     1  UNL1       -0.0455
      6 C           5.1137   -1.4974    0.0000 C.2     1  UNL1       -0.0812
      7 C           5.3725   -0.5315    0.0000 C.2     1  UNL1       -0.0838
      8 C           3.3415    1.9545    0.0000 C.3     1  UNL1       -0.0585
      9 C           2.3234    1.3667    0.0000 C.3     1  UNL1       -0.0585
     10 C           3.4559   -1.9545    0.0000 C.3     1  UNL1       -0.0556
     11 H           3.9595   -0.6425    0.0000 H       1  UNL1        0.0348
     12 H           1.7636   -1.8039    0.0000 H       1  UNL1        0.0274
     13 H           2.5765   -2.1546    0.0000 H       1  UNL1        0.0274
     14 H           1.8057   -0.0521    0.0000 H       1  UNL1        0.0271
     15 H           1.4142   -0.8441    0.0000 H       1  UNL1        0.0271
     16 H           5.4000   -2.0473    0.0000 H       1  UNL1        0.0575
     17 H           5.9224   -0.2451    0.0000 H       1  UNL1        0.0572
     18 H           3.9581    1.8897    0.0000 H       1  UNL1        0.0235
     19 H           3.4063    2.5711    0.0000 H       1  UNL1        0.0235
     20 H           2.7248    2.0193    0.0000 H       1  UNL1        0.0235
     21 H           2.5756    1.9331    0.0000 H       1  UNL1        0.0235
     22 H           1.7570    1.6189    0.0000 H       1  UNL1        0.0235
     23 H           2.0712    0.8003    0.0000 H       1  UNL1        0.0235
     24 H           2.8570   -1.7940    0.0000 H       1  UNL1        0.0238
     25 H           3.2954   -2.5534    0.0000 H       1  UNL1        0.0238
     26 H           4.0548   -2.1150    0.0000 H       1  UNL1        0.0238
@<TRIPOS>BOND
     1     1     2    1
     2     1     3    1
     3     1     8    1
     4     1     9    1
     5     2     4    1
     6     2     6    1
     7     2    10    1
     8     3     5    1
     9     3     7    1
    10     3    11    1
    11     4     5    1
    12     4    12    1
    13     4    13    1
    14     5    14    1
    15     5    15    1
    16     6     7    2
    17     6    16    1
    18     7    17    1
    19     8    18    1
    20     8    19    1
    21     8    20    1
    22     9    21    1
    23     9    22    1
    24     9    23    1
    25    10    24    1
    26    10    25    1
    27    10    26    1
