@<TRIPOS>MOLECULE
IMPHY015283
 83 82 0 0 0
SMALL
GASTEIGER

@<TRIPOS>ATOM
      1 C          11.5263    0.2500    0.0000 C.3     1  UNL1       -0.0531
      2 C          12.3923    0.7500    0.0000 C.3     1  UNL1       -0.0531
      3 C          10.6603    0.7500    0.0000 C.3     1  UNL1       -0.0531
      4 C          13.2583    0.2500    0.0000 C.3     1  UNL1       -0.0531
      5 C           9.7942    0.2500    0.0000 C.3     1  UNL1       -0.0531
      6 C          14.1244    0.7500    0.0000 C.3     1  UNL1       -0.0531
      7 C           8.9282    0.7500    0.0000 C.3     1  UNL1       -0.0531
      8 C          14.9904    0.2500    0.0000 C.3     1  UNL1       -0.0531
      9 C           8.0622    0.2500    0.0000 C.3     1  UNL1       -0.0531
     10 C          15.8564    0.7500    0.0000 C.3     1  UNL1       -0.0531
     11 C           7.1962    0.7500    0.0000 C.3     1  UNL1       -0.0531
     12 C          16.7224    0.2500    0.0000 C.3     1  UNL1       -0.0531
     13 C           6.3301    0.2500    0.0000 C.3     1  UNL1       -0.0531
     14 C          17.5885    0.7500    0.0000 C.3     1  UNL1       -0.0531
     15 C           5.4641    0.7500    0.0000 C.3     1  UNL1       -0.0530
     16 C          18.4545    0.2500    0.0000 C.3     1  UNL1       -0.0531
     17 C           4.5981    0.2500    0.0000 C.3     1  UNL1       -0.0528
     18 C          19.3205    0.7500    0.0000 C.3     1  UNL1       -0.0531
     19 C           3.7320    0.7500    0.0000 C.3     1  UNL1       -0.0507
     20 C          20.1865    0.2500    0.0000 C.3     1  UNL1       -0.0531
     21 C           2.8660    0.2500    0.0000 C.3     1  UNL1       -0.0467
     22 C          21.0526    0.7500    0.0000 C.3     1  UNL1       -0.0531
     23 C          21.9186    0.2500    0.0000 C.3     1  UNL1       -0.0533
     24 C           2.0000    0.7500    0.0000 C.3     1  UNL1       -0.0627
     25 C           2.8660   -0.7500    0.0000 C.3     1  UNL1       -0.0627
     26 C          22.7846    0.7500    0.0000 C.3     1  UNL1       -0.0559
     27 C          23.6506    0.2500    0.0000 C.3     1  UNL1       -0.0653
     28 H          11.1278   -0.2249    0.0000 H       1  UNL1        0.0265
     29 H          11.9248   -0.2249    0.0000 H       1  UNL1        0.0265
     30 H          12.7908    1.2250    0.0000 H       1  UNL1        0.0265
     31 H          11.9938    1.2250    0.0000 H       1  UNL1        0.0265
     32 H          11.0588    1.2250    0.0000 H       1  UNL1        0.0265
     33 H          10.2617    1.2250    0.0000 H       1  UNL1        0.0265
     34 H          12.8598   -0.2249    0.0000 H       1  UNL1        0.0265
     35 H          13.6569   -0.2249    0.0000 H       1  UNL1        0.0265
     36 H           9.3957   -0.2249    0.0000 H       1  UNL1        0.0265
     37 H          10.1928   -0.2249    0.0000 H       1  UNL1        0.0265
     38 H          14.5229    1.2250    0.0000 H       1  UNL1        0.0265
     39 H          13.7258    1.2250    0.0000 H       1  UNL1        0.0265
     40 H           9.3267    1.2250    0.0000 H       1  UNL1        0.0265
     41 H           8.5297    1.2250    0.0000 H       1  UNL1        0.0265
     42 H          14.5919   -0.2249    0.0000 H       1  UNL1        0.0265
     43 H          15.3889   -0.2249    0.0000 H       1  UNL1        0.0265
     44 H           7.6636   -0.2249    0.0000 H       1  UNL1        0.0265
     45 H           8.4607   -0.2249    0.0000 H       1  UNL1        0.0265
     46 H          16.2549    1.2250    0.0000 H       1  UNL1        0.0265
     47 H          15.4579    1.2250    0.0000 H       1  UNL1        0.0265
     48 H           7.5947    1.2250    0.0000 H       1  UNL1        0.0265
     49 H           6.7976    1.2250    0.0000 H       1  UNL1        0.0265
     50 H          16.3239   -0.2249    0.0000 H       1  UNL1        0.0265
     51 H          17.1210   -0.2249    0.0000 H       1  UNL1        0.0265
     52 H           5.9316   -0.2249    0.0000 H       1  UNL1        0.0265
     53 H           6.7287   -0.2249    0.0000 H       1  UNL1        0.0265
     54 H          17.9870    1.2250    0.0000 H       1  UNL1        0.0265
     55 H          17.1899    1.2250    0.0000 H       1  UNL1        0.0265
     56 H           5.8626    1.2250    0.0000 H       1  UNL1        0.0265
     57 H           5.0656    1.2250    0.0000 H       1  UNL1        0.0265
     58 H          18.0560   -0.2249    0.0000 H       1  UNL1        0.0265
     59 H          18.8530   -0.2249    0.0000 H       1  UNL1        0.0265
     60 H           4.1996   -0.2249    0.0000 H       1  UNL1        0.0265
     61 H           4.9966   -0.2249    0.0000 H       1  UNL1        0.0265
     62 H          19.7190    1.2250    0.0000 H       1  UNL1        0.0265
     63 H          18.9220    1.2250    0.0000 H       1  UNL1        0.0265
     64 H           4.1306    1.2250    0.0000 H       1  UNL1        0.0268
     65 H           3.3335    1.2250    0.0000 H       1  UNL1        0.0268
     66 H          19.7880   -0.2249    0.0000 H       1  UNL1        0.0265
     67 H          20.5851   -0.2249    0.0000 H       1  UNL1        0.0265
     68 H           2.8660    0.8700    0.0000 H       1  UNL1        0.0295
     69 H          21.4511    1.2250    0.0000 H       1  UNL1        0.0265
     70 H          20.6540    1.2250    0.0000 H       1  UNL1        0.0265
     71 H          21.5201   -0.2249    0.0000 H       1  UNL1        0.0265
     72 H          22.3171   -0.2249    0.0000 H       1  UNL1        0.0265
     73 H           2.3100    1.2869    0.0000 H       1  UNL1        0.0232
     74 H           1.4631    1.0600    0.0000 H       1  UNL1        0.0232
     75 H           1.6900    0.2131    0.0000 H       1  UNL1        0.0232
     76 H           2.2460   -0.7500    0.0000 H       1  UNL1        0.0232
     77 H           2.8660   -1.3700    0.0000 H       1  UNL1        0.0232
     78 H           3.4860   -0.7500    0.0000 H       1  UNL1        0.0232
     79 H          23.1831    1.2250    0.0000 H       1  UNL1        0.0263
     80 H          22.3861    1.2250    0.0000 H       1  UNL1        0.0263
     81 H          23.3406   -0.2869    0.0000 H       1  UNL1        0.0230
     82 H          24.1876   -0.0600    0.0000 H       1  UNL1        0.0230
     83 H          23.9606    0.7869    0.0000 H       1  UNL1        0.0230
@<TRIPOS>BOND
     1     1     2    1
     2     1     3    1
     3     1    28    1
     4     1    29    1
     5     2     4    1
     6     2    30    1
     7     2    31    1
     8     3     5    1
     9     3    32    1
    10     3    33    1
    11     4     6    1
    12     4    34    1
    13     4    35    1
    14     5     7    1
    15     5    36    1
    16     5    37    1
    17     6     8    1
    18     6    38    1
    19     6    39    1
    20     7     9    1
    21     7    40    1
    22     7    41    1
    23     8    10    1
    24     8    42    1
    25     8    43    1
    26     9    11    1
    27     9    44    1
    28     9    45    1
    29    10    12    1
    30    10    46    1
    31    10    47    1
    32    11    13    1
    33    11    48    1
    34    11    49    1
    35    12    14    1
    36    12    50    1
    37    12    51    1
    38    13    15    1
    39    13    52    1
    40    13    53    1
    41    14    16    1
    42    14    54    1
    43    14    55    1
    44    15    17    1
    45    15    56    1
    46    15    57    1
    47    16    18    1
    48    16    58    1
    49    16    59    1
    50    17    19    1
    51    17    60    1
    52    17    61    1
    53    18    20    1
    54    18    62    1
    55    18    63    1
    56    19    21    1
    57    19    64    1
    58    19    65    1
    59    20    22    1
    60    20    66    1
    61    20    67    1
    62    21    24    1
    63    21    25    1
    64    21    68    1
    65    22    23    1
    66    22    69    1
    67    22    70    1
    68    23    26    1
    69    23    71    1
    70    23    72    1
    71    24    73    1
    72    24    74    1
    73    24    75    1
    74    25    76    1
    75    25    77    1
    76    25    78    1
    77    26    27    1
    78    26    79    1
    79    26    80    1
    80    27    81    1
    81    27    82    1
    82    27    83    1
