@<TRIPOS>MOLECULE
IMPHY001503
 17 17 0 0 0
SMALL
GASTEIGER

@<TRIPOS>ATOM
      1 O           2.0000   -1.6739    0.0000 O.2     1  UNL1       -0.2974
      2 C           3.0878    0.6739    0.0000 C.3     1  UNL1       -0.0368
      3 C           3.8968    0.0861    0.0000 C.3     1  UNL1       -0.0434
      4 C           2.2788    0.0861    0.0000 C.3     1  UNL1        0.0084
      5 C           3.5878   -0.8649    0.0000 C.3     1  UNL1        0.0061
      6 C           2.5878   -0.8649    0.0000 C.2     1  UNL1        0.1336
      7 C           3.0878    1.6739    0.0000 C.3     1  UNL1       -0.0620
      8 H           3.8451    1.0598    0.0000 H       1  UNL1        0.0302
      9 H           4.4632   -0.1660    0.0000 H       1  UNL1        0.0272
     10 H           4.2068    0.6231    0.0000 H       1  UNL1        0.0272
     11 H           1.9688    0.6231    0.0000 H       1  UNL1        0.0344
     12 H           1.7124   -0.1660    0.0000 H       1  UNL1        0.0344
     13 H           3.5230   -1.4815    0.0000 H       1  UNL1        0.0342
     14 H           4.1942   -0.9938    0.0000 H       1  UNL1        0.0342
     15 H           3.7078    1.6739    0.0000 H       1  UNL1        0.0233
     16 H           3.0878    2.2939    0.0000 H       1  UNL1        0.0233
     17 H           2.4678    1.6739    0.0000 H       1  UNL1        0.0233
@<TRIPOS>BOND
     1     1     6    2
     2     2     3    1
     3     2     4    1
     4     2     7    1
     5     2     8    1
     6     3     5    1
     7     3     9    1
     8     3    10    1
     9     4     6    1
    10     4    11    1
    11     4    12    1
    12     5     6    1
    13     5    13    1
    14     5    14    1
    15     7    15    1
    16     7    16    1
    17     7    17    1
