@<TRIPOS>MOLECULE
IMPHY012840
 100 105 0 0 0
SMALL
GASTEIGER

@<TRIPOS>ATOM
      1 O           6.3241   -1.2124    0.0000 O.2     1  UNL1       -0.2916
      2 O          10.6646    0.3522    0.0000 O.2     1  UNL1       -0.4537
      3 O           7.0576    1.1699    0.0000 O.3     1  UNL1       -0.5062
      4 O           8.0907   -4.1922    0.0000 O.3     1  UNL1       -0.5064
      5 O           8.9162    3.3868    0.0000 O.3     1  UNL1       -0.5058
      6 O           5.4638   -1.7223    0.0000 O.3     1  UNL1       -0.5057
      7 O           4.6268   -4.2322    0.0000 O.3     1  UNL1       -0.5066
      8 O          10.6646    3.3522    0.0000 O.2     1  UNL1       -0.2866
      9 O           3.6972    1.2574    0.0000 O.3     1  UNL1       -0.5064
     10 O          11.5306   -1.1478    0.0000 O.3     1  UNL1       -0.5059
     11 O          14.9947   -1.1478    0.0000 O.3     1  UNL1       -0.5066
     12 C           8.0560   -1.1924    0.0000 C.3     1  UNL1        0.0399
     13 C           8.0676   -2.1923    0.0000 C.3     1  UNL1        0.0019
     14 C           8.9162   -0.6824    0.0000 C.3     1  UNL1        0.0198
     15 C           8.9393   -2.6823    0.0000 C.3     1  UNL1       -0.0244
     16 C           9.7995   -2.1723    0.0000 C.2     1  UNL1       -0.0753
     17 C           9.7879   -1.1724    0.0000 C.2     1  UNL1       -0.0767
     18 C           8.9046    0.3175    0.0000 C.ar    1  UNL1        0.0446
     19 C           7.2074   -2.7023    0.0000 C.ar    1  UNL1       -0.0016
     20 C           7.1842   -0.7024    0.0000 C.2     1  UNL1        0.1712
     21 C           9.7986    0.8522    0.0000 C.ar    1  UNL1        0.1500
     22 C          10.6712   -2.6622    0.0000 C.3     1  UNL1       -0.0437
     23 C           7.9986    0.8314    0.0000 C.ar    1  UNL1        0.1276
     24 C           6.3125   -0.2125    0.0000 C.ar    1  UNL1        0.0596
     25 C           7.2189   -3.7022    0.0000 C.ar    1  UNL1        0.1238
     26 C           6.3356   -2.2123    0.0000 C.ar    1  UNL1       -0.0514
     27 C           9.7986    1.8522    0.0000 C.ar    1  UNL1        0.1060
     28 C           7.9986    1.8730    0.0000 C.ar    1  UNL1        0.0225
     29 C           8.9046    2.3869    0.0000 C.ar    1  UNL1        0.1347
     30 C           5.4523   -0.7225    0.0000 C.ar    1  UNL1        0.1342
     31 C           6.3588   -4.2122    0.0000 C.ar    1  UNL1        0.0216
     32 C           5.4754   -2.7223    0.0000 C.ar    1  UNL1       -0.0197
     33 C           6.3009    0.7875    0.0000 C.ar    1  UNL1       -0.0443
     34 C          10.6646    2.3522    0.0000 C.ar    1  UNL1        0.2001
     35 C           5.4870   -3.7223    0.0000 C.ar    1  UNL1        0.1203
     36 C          11.5306    0.8522    0.0000 C.ar    1  UNL1        0.1462
     37 C          11.5306    1.8522    0.0000 C.ar    1  UNL1        0.0467
     38 C           4.5806   -0.2325    0.0000 C.ar    1  UNL1        0.0398
     39 C           5.4292    1.2774    0.0000 C.ar    1  UNL1       -0.0190
     40 C           4.5690    0.7674    0.0000 C.ar    1  UNL1        0.1238
     41 C          12.3966    2.3522    0.0000 C.3     1  UNL1       -0.0021
     42 C           3.7204   -0.7425    0.0000 C.3     1  UNL1       -0.0023
     43 C          12.3966    0.3522    0.0000 C.ar    1  UNL1        0.0593
     44 C          12.3966    3.3522    0.0000 C.2     1  UNL1       -0.0807
     45 C          12.3966   -0.6478    0.0000 C.ar    1  UNL1        0.1310
     46 C           3.7319   -1.7424    0.0000 C.2     1  UNL1       -0.0807
     47 C          13.2627    0.8522    0.0000 C.ar    1  UNL1       -0.0441
     48 C          13.2627    3.8522    0.0000 C.2     1  UNL1       -0.0793
     49 C          13.2627   -1.1478    0.0000 C.ar    1  UNL1        0.0220
     50 C          14.1287    0.3522    0.0000 C.ar    1  UNL1       -0.0193
     51 C           2.8718   -2.2524    0.0000 C.2     1  UNL1       -0.0793
     52 C          14.1287   -0.6478    0.0000 C.ar    1  UNL1        0.1204
     53 C          13.2627    4.8522    0.0000 C.3     1  UNL1       -0.0440
     54 C          14.1287    3.3522    0.0000 C.3     1  UNL1       -0.0440
     55 C           2.8833   -3.2523    0.0000 C.3     1  UNL1       -0.0440
     56 C           2.0000   -1.7624    0.0000 C.3     1  UNL1       -0.0440
     57 H           8.0488   -0.5724    0.0000 H       1  UNL1        0.0396
     58 H           8.0747   -2.8123    0.0000 H       1  UNL1        0.0360
     59 H           9.6473   -0.2489    0.0000 H       1  UNL1        0.0401
     60 H           8.5463   -3.1618    0.0000 H       1  UNL1        0.0316
     61 H           9.3433   -3.1526    0.0000 H       1  UNL1        0.0316
     62 H          10.3212   -0.8562    0.0000 H       1  UNL1        0.0578
     63 H          10.3675   -3.2027    0.0000 H       1  UNL1        0.0274
     64 H          11.2117   -2.9660    0.0000 H       1  UNL1        0.0274
     65 H          10.9750   -2.1218    0.0000 H       1  UNL1        0.0274
     66 H           6.3284   -1.5924    0.0000 H       1  UNL1        0.0623
     67 H           7.4628    2.1851    0.0000 H       1  UNL1        0.0691
     68 H           6.3659   -4.8322    0.0000 H       1  UNL1        0.0691
     69 H           4.9350   -2.4186    0.0000 H       1  UNL1        0.0654
     70 H           6.8342    1.1036    0.0000 H       1  UNL1        0.0627
     71 H           6.9476    1.7800    0.0000 H       1  UNL1        0.2921
     72 H           8.0978   -4.8121    0.0000 H       1  UNL1        0.2921
     73 H           5.4220    1.8974    0.0000 H       1  UNL1        0.0654
     74 H          12.6087    1.7696    0.0000 H       1  UNL1        0.0358
     75 H          13.0072    2.4599    0.0000 H       1  UNL1        0.0358
     76 H           3.5016   -0.1624    0.0000 H       1  UNL1        0.0358
     77 H           3.1111   -0.8572    0.0000 H       1  UNL1        0.0358
     78 H           8.3829    3.7030    0.0000 H       1  UNL1        0.2922
     79 H           4.9305   -2.0385    0.0000 H       1  UNL1        0.2922
     80 H           4.6340   -4.8522    0.0000 H       1  UNL1        0.2921
     81 H          11.8597    3.6622    0.0000 H       1  UNL1        0.0575
     82 H           4.2724   -2.0462    0.0000 H       1  UNL1        0.0575
     83 H          13.2627    1.4722    0.0000 H       1  UNL1        0.0627
     84 H           3.6901    1.8773    0.0000 H       1  UNL1        0.2921
     85 H          13.2627   -1.7678    0.0000 H       1  UNL1        0.0691
     86 H          14.6656    0.6622    0.0000 H       1  UNL1        0.0654
     87 H          10.9937   -0.8378    0.0000 H       1  UNL1        0.2922
     88 H          13.8827    4.8522    0.0000 H       1  UNL1        0.0274
     89 H          13.2627    5.4722    0.0000 H       1  UNL1        0.0274
     90 H          12.6427    4.8522    0.0000 H       1  UNL1        0.0274
     91 H          13.8187    2.8153    0.0000 H       1  UNL1        0.0274
     92 H          14.6656    3.0422    0.0000 H       1  UNL1        0.0274
     93 H          14.4387    3.8891    0.0000 H       1  UNL1        0.0274
     94 H           2.2633   -3.2594    0.0000 H       1  UNL1        0.0274
     95 H           2.8904   -3.8722    0.0000 H       1  UNL1        0.0274
     96 H           3.5032   -3.2451    0.0000 H       1  UNL1        0.0274
     97 H           2.3038   -1.2220    0.0000 H       1  UNL1        0.0274
     98 H           1.4595   -1.4587    0.0000 H       1  UNL1        0.0274
     99 H           1.6962   -2.3029    0.0000 H       1  UNL1        0.0274
    100 H          15.5316   -0.8378    0.0000 H       1  UNL1        0.2921
@<TRIPOS>BOND
     1     1    20    2
     2     2    21   ar
     3     2    36   ar
     4     3    23    1
     5     3    71    1
     6     4    25    1
     7     4    72    1
     8     5    29    1
     9     5    78    1
    10     6    30    1
    11     6    79    1
    12     7    35    1
    13     7    80    1
    14     8    34    2
    15     9    40    1
    16     9    84    1
    17    10    45    1
    18    10    87    1
    19    11    52    1
    20    11   100    1
    21    12    13    1
    22    12    14    1
    23    12    20    1
    24    12    57    1
    25    13    15    1
    26    13    19    1
    27    13    58    1
    28    14    17    1
    29    14    18    1
    30    14    59    1
    31    15    16    1
    32    15    60    1
    33    15    61    1
    34    16    17    2
    35    16    22    1
    36    17    62    1
    37    18    21   ar
    38    18    23   ar
    39    19    25   ar
    40    19    26   ar
    41    20    24    1
    42    21    27   ar
    43    22    63    1
    44    22    64    1
    45    22    65    1
    46    23    28   ar
    47    24    30   ar
    48    24    33   ar
    49    25    31   ar
    50    26    32   ar
    51    26    66    1
    52    27    29   ar
    53    27    34   ar
    54    28    29   ar
    55    28    67    1
    56    30    38   ar
    57    31    35   ar
    58    31    68    1
    59    32    35   ar
    60    32    69    1
    61    33    39   ar
    62    33    70    1
    63    34    37   ar
    64    36    37   ar
    65    36    43    1
    66    37    41    1
    67    38    40   ar
    68    38    42    1
    69    39    40   ar
    70    39    73    1
    71    41    44    1
    72    41    74    1
    73    41    75    1
    74    42    46    1
    75    42    76    1
    76    42    77    1
    77    43    45   ar
    78    43    47   ar
    79    44    48    2
    80    44    81    1
    81    45    49   ar
    82    46    51    2
    83    46    82    1
    84    47    50   ar
    85    47    83    1
    86    48    53    1
    87    48    54    1
    88    49    52   ar
    89    49    85    1
    90    50    52   ar
    91    50    86    1
    92    51    55    1
    93    51    56    1
    94    53    88    1
    95    53    89    1
    96    53    90    1
    97    54    91    1
    98    54    92    1
    99    54    93    1
   100    55    94    1
   101    55    95    1
   102    55    96    1
   103    56    97    1
   104    56    98    1
   105    56    99    1
