@<TRIPOS>MOLECULE
IMPHY001433
 91 91 0 0 0
SMALL
GASTEIGER

@<TRIPOS>ATOM
      1 O           8.1097    1.5050    0.0000 O.2     1  UNL1       -0.2758
      2 N          11.4407    0.4425    0.0000 N.3     1  UNL1       -0.3127
      3 N          14.1501    2.9126    0.0000 N.3     1  UNL1       -0.3053
      4 N          10.9407    5.8384    0.0000 N.3     1  UNL1       -0.3053
      5 N           8.7312    2.9126    0.0000 N.am    1  UNL1       -0.3152
      6 C          10.4577    0.6263    0.0000 C.3     1  UNL1        0.0159
      7 C          10.0964   -0.3062    0.0000 C.3     1  UNL1       -0.0371
      8 C           9.1083   -0.4596    0.0000 C.3     1  UNL1       -0.0516
      9 C           8.7470   -1.3920    0.0000 C.3     1  UNL1       -0.0530
     10 C           7.7589   -1.5454    0.0000 C.3     1  UNL1       -0.0531
     11 C           9.6075    1.1527    0.0000 C.3     1  UNL1        0.0393
     12 C           7.3976   -2.4779    0.0000 C.3     1  UNL1       -0.0531
     13 C          12.4236    0.6263    0.0000 C.3     1  UNL1       -0.0027
     14 C           6.4095   -2.6313    0.0000 C.3     1  UNL1       -0.0531
     15 C          13.2738    1.1527    0.0000 C.3     1  UNL1       -0.0276
     16 C           6.0482   -3.5638    0.0000 C.3     1  UNL1       -0.0531
     17 C          13.8765    1.9507    0.0000 C.3     1  UNL1       -0.0003
     18 C           5.0601   -3.7172    0.0000 C.3     1  UNL1       -0.0531
     19 C          14.0579    3.9083    0.0000 C.3     1  UNL1       -0.0014
     20 C          13.6121    4.8035    0.0000 C.3     1  UNL1       -0.0391
     21 C           9.0048    1.9507    0.0000 C.2     1  UNL1        0.2145
     22 C          12.8731    5.4772    0.0000 C.3     1  UNL1       -0.0391
     23 C           4.6988   -4.6496    0.0000 C.3     1  UNL1       -0.0531
     24 C          11.9407    5.8384    0.0000 C.3     1  UNL1       -0.0014
     25 C          10.0082    5.4772    0.0000 C.3     1  UNL1        0.0000
     26 C           9.2692    4.8035    0.0000 C.3     1  UNL1       -0.0246
     27 C           3.7106   -4.8030    0.0000 C.3     1  UNL1       -0.0531
     28 C           8.8234    3.9083    0.0000 C.3     1  UNL1        0.0127
     29 C          15.1459    2.8203    0.0000 C.3     1  UNL1       -0.0128
     30 C           3.3494   -5.7355    0.0000 C.3     1  UNL1       -0.0533
     31 C          10.7569    6.8214    0.0000 C.3     1  UNL1       -0.0128
     32 C           2.3612   -5.8889    0.0000 C.3     1  UNL1       -0.0559
     33 C           2.0000   -6.8214    0.0000 C.3     1  UNL1       -0.0653
     34 H          10.7594    0.0846    0.0000 H       1  UNL1        0.0465
     35 H          10.0837   -0.9261    0.0000 H       1  UNL1        0.0280
     36 H          10.7047   -0.4264    0.0000 H       1  UNL1        0.0280
     37 H           9.1210    0.1603    0.0000 H       1  UNL1        0.0266
     38 H           8.5000   -0.3394    0.0000 H       1  UNL1        0.0266
     39 H           8.7343   -2.0119    0.0000 H       1  UNL1        0.0265
     40 H           9.3553   -1.5122    0.0000 H       1  UNL1        0.0265
     41 H           7.7716   -0.9256    0.0000 H       1  UNL1        0.0265
     42 H           7.1506   -1.4253    0.0000 H       1  UNL1        0.0265
     43 H           9.0062    1.0015    0.0000 H       1  UNL1        0.0374
     44 H          10.0252    1.6109    0.0000 H       1  UNL1        0.0374
     45 H           7.3849   -3.0978    0.0000 H       1  UNL1        0.0265
     46 H           8.0059   -2.5981    0.0000 H       1  UNL1        0.0265
     47 H          11.4407   -0.1775    0.0000 H       1  UNL1        0.1222
     48 H          12.2910    0.0206    0.0000 H       1  UNL1        0.0424
     49 H          12.1997    1.2044    0.0000 H       1  UNL1        0.0424
     50 H           6.4222   -2.0114    0.0000 H       1  UNL1        0.0265
     51 H           5.8012   -2.5111    0.0000 H       1  UNL1        0.0265
     52 H          13.3690    0.5401    0.0000 H       1  UNL1        0.0290
     53 H          12.8562    1.6109    0.0000 H       1  UNL1        0.0290
     54 H           6.0355   -4.1836    0.0000 H       1  UNL1        0.0265
     55 H           6.6565   -3.6840    0.0000 H       1  UNL1        0.0265
     56 H          14.1865    1.4138    0.0000 H       1  UNL1        0.0427
     57 H          13.3215    2.2271    0.0000 H       1  UNL1        0.0427
     58 H           5.0728   -3.0973    0.0000 H       1  UNL1        0.0265
     59 H           4.4518   -3.5970    0.0000 H       1  UNL1        0.0265
     60 H          14.6487    3.7203    0.0000 H       1  UNL1        0.0426
     61 H          13.4615    3.7386    0.0000 H       1  UNL1        0.0426
     62 H          14.2310    4.8416    0.0000 H       1  UNL1        0.0278
     63 H          13.1174    4.4298    0.0000 H       1  UNL1        0.0278
     64 H          13.4364    5.7363    0.0000 H       1  UNL1        0.0278
     65 H          12.5467    4.9500    0.0000 H       1  UNL1        0.0278
     66 H           4.6861   -5.2695    0.0000 H       1  UNL1        0.0265
     67 H           5.3071   -4.7698    0.0000 H       1  UNL1        0.0265
     68 H          12.3723    6.2835    0.0000 H       1  UNL1        0.0426
     69 H          11.8267    5.2290    0.0000 H       1  UNL1        0.0426
     70 H          10.0273    6.0969    0.0000 H       1  UNL1        0.0427
     71 H          10.3346    4.9500    0.0000 H       1  UNL1        0.0427
     72 H           9.0631    5.3882    0.0000 H       1  UNL1        0.0293
     73 H           9.7640    4.4298    0.0000 H       1  UNL1        0.0293
     74 H           3.7234   -4.1832    0.0000 H       1  UNL1        0.0265
     75 H           3.1024   -4.6829    0.0000 H       1  UNL1        0.0265
     76 H           8.4200    4.3791    0.0000 H       1  UNL1        0.0462
     77 H           9.4198    3.7386    0.0000 H       1  UNL1        0.0462
     78 H           8.1138    2.8554    0.0000 H       1  UNL1        0.1487
     79 H          15.0887    2.2029    0.0000 H       1  UNL1        0.0391
     80 H          15.7632    2.7631    0.0000 H       1  UNL1        0.0391
     81 H          15.2031    3.4376    0.0000 H       1  UNL1        0.0391
     82 H           3.3367   -6.3554    0.0000 H       1  UNL1        0.0265
     83 H           3.9576   -5.8557    0.0000 H       1  UNL1        0.0265
     84 H          11.3664    6.9353    0.0000 H       1  UNL1        0.0391
     85 H          10.6430    7.4308    0.0000 H       1  UNL1        0.0391
     86 H          10.1475    6.7074    0.0000 H       1  UNL1        0.0391
     87 H           2.3740   -5.2690    0.0000 H       1  UNL1        0.0263
     88 H           1.7530   -5.7687    0.0000 H       1  UNL1        0.0263
     89 H           1.4219   -6.5974    0.0000 H       1  UNL1        0.0230
     90 H           1.7760   -7.3995    0.0000 H       1  UNL1        0.0230
     91 H           2.5781   -7.0453    0.0000 H       1  UNL1        0.0230
@<TRIPOS>BOND
     1     1    21    2
     2     2     6    1
     3     2    13    1
     4     2    47    1
     5     3    17    1
     6     3    19    1
     7     3    29    1
     8     4    24    1
     9     4    25    1
    10     4    31    1
    11     5    21   am
    12     5    28    1
    13     5    78    1
    14     6     7    1
    15     6    11    1
    16     6    34    1
    17     7     8    1
    18     7    35    1
    19     7    36    1
    20     8     9    1
    21     8    37    1
    22     8    38    1
    23     9    10    1
    24     9    39    1
    25     9    40    1
    26    10    12    1
    27    10    41    1
    28    10    42    1
    29    11    21    1
    30    11    43    1
    31    11    44    1
    32    12    14    1
    33    12    45    1
    34    12    46    1
    35    13    15    1
    36    13    48    1
    37    13    49    1
    38    14    16    1
    39    14    50    1
    40    14    51    1
    41    15    17    1
    42    15    52    1
    43    15    53    1
    44    16    18    1
    45    16    54    1
    46    16    55    1
    47    17    56    1
    48    17    57    1
    49    18    23    1
    50    18    58    1
    51    18    59    1
    52    19    20    1
    53    19    60    1
    54    19    61    1
    55    20    22    1
    56    20    62    1
    57    20    63    1
    58    22    24    1
    59    22    64    1
    60    22    65    1
    61    23    27    1
    62    23    66    1
    63    23    67    1
    64    24    68    1
    65    24    69    1
    66    25    26    1
    67    25    70    1
    68    25    71    1
    69    26    28    1
    70    26    72    1
    71    26    73    1
    72    27    30    1
    73    27    74    1
    74    27    75    1
    75    28    76    1
    76    28    77    1
    77    29    79    1
    78    29    80    1
    79    29    81    1
    80    30    32    1
    81    30    82    1
    82    30    83    1
    83    31    84    1
    84    31    85    1
    85    31    86    1
    86    32    33    1
    87    32    87    1
    88    32    88    1
    89    33    89    1
    90    33    90    1
    91    33    91    1
