@<TRIPOS>MOLECULE
IMPHY016577
 27 28 0 0 0
SMALL
GASTEIGER

@<TRIPOS>ATOM
      1 O           2.6196   -1.8378    0.0000 O.3     1  UNL1       -0.3845
      2 C           5.7091   -0.0803    0.0000 C.3     1  UNL1       -0.0229
      3 C           4.3101   -0.0891    0.0000 C.3     1  UNL1       -0.0026
      4 C           4.5689    0.8768    0.0000 C.3     1  UNL1       -0.0169
      5 C           3.8323    1.8594    0.0000 C.3     1  UNL1       -0.0400
      6 C           3.0891   -0.9548    0.0000 C.3     1  UNL1        0.0847
      7 C           2.5357    0.5656    0.0000 C.2     1  UNL1       -0.0816
      8 C           6.5751    0.4197    0.0000 C.3     1  UNL1       -0.0589
      9 C           6.2091   -0.9464    0.0000 C.3     1  UNL1       -0.0589
     10 C           2.2601   -0.3956    0.0000 C.2     1  UNL1       -0.0565
     11 C           3.6190   -1.8029    0.0000 C.3     1  UNL1       -0.0322
     12 H           4.5001   -0.6793    0.0000 H       1  UNL1        0.0337
     13 H           5.0193    1.3030    0.0000 H       1  UNL1        0.0348
     14 H           4.1501    2.3918    0.0000 H       1  UNL1        0.0275
     15 H           3.2192    1.9514    0.0000 H       1  UNL1        0.0275
     16 H           2.1261    1.0311    0.0000 H       1  UNL1        0.0573
     17 H           6.8851   -0.1173    0.0000 H       1  UNL1        0.0235
     18 H           7.1120    0.7297    0.0000 H       1  UNL1        0.0235
     19 H           6.2651    0.9566    0.0000 H       1  UNL1        0.0235
     20 H           5.6721   -1.2564    0.0000 H       1  UNL1        0.0235
     21 H           6.5191   -1.4833    0.0000 H       1  UNL1        0.0235
     22 H           6.7460   -0.6364    0.0000 H       1  UNL1        0.0235
     23 H           1.6774   -0.6077    0.0000 H       1  UNL1        0.0597
     24 H           3.0932   -2.1314    0.0000 H       1  UNL1        0.0260
     25 H           3.9476   -2.3286    0.0000 H       1  UNL1        0.0260
     26 H           4.1448   -1.4743    0.0000 H       1  UNL1        0.0260
     27 H           2.0000   -1.8594    0.0000 H       1  UNL1        0.2106
@<TRIPOS>BOND
     1     1     6    1
     2     1    27    1
     3     2     3    1
     4     2     4    1
     5     2     8    1
     6     2     9    1
     7     3     5    1
     8     3     6    1
     9     3    12    1
    10     4     5    1
    11     4     7    1
    12     4    13    1
    13     5    14    1
    14     5    15    1
    15     6    10    1
    16     6    11    1
    17     7    10    2
    18     7    16    1
    19     8    17    1
    20     8    18    1
    21     8    19    1
    22     9    20    1
    23     9    21    1
    24     9    22    1
    25    10    23    1
    26    11    24    1
    27    11    25    1
    28    11    26    1
