@<TRIPOS>MOLECULE
IMPHY012722
 73 77 0 0 0
SMALL
GASTEIGER

@<TRIPOS>ATOM
      1 O           6.9343   -0.2500    0.0000 O.3     1  UNL1       -0.3313
      2 O           6.0682   -2.7500    0.0000 O.3     1  UNL1       -0.3461
      3 O           4.3362   -2.7500    0.0000 O.3     1  UNL1       -0.3431
      4 O           7.8003   -2.7500    0.0000 O.3     1  UNL1       -0.3865
      5 O           9.5323   -1.7500    0.0000 O.3     1  UNL1       -0.3864
      6 O           7.8003    1.2500    0.0000 O.3     1  UNL1       -0.4532
      7 O           9.5323    0.2500    0.0000 O.3     1  UNL1       -0.3829
      8 O           6.0682   -4.7500    0.0000 O.3     1  UNL1       -0.3841
      9 O           4.3362   -5.7500    0.0000 O.3     1  UNL1       -0.3864
     10 O           2.6042   -4.7500    0.0000 O.3     1  UNL1       -0.3866
     11 O           6.0682    3.2500    0.0000 O.2     1  UNL1       -0.4507
     12 O           6.0682    0.2500    0.0000 O.2     1  UNL1       -0.2830
     13 O           4.3198    0.2154    0.0000 O.3     1  UNL1       -0.5058
     14 O           2.5381    3.2742    0.0000 O.3     1  UNL1       -0.5065
     15 O           8.6663    5.7500    0.0000 O.3     1  UNL1       -0.5033
     16 O          10.3984    4.7500    0.0000 O.3     1  UNL1       -0.5033
     17 C           6.9343   -1.2500    0.0000 C.3     1  UNL1        0.1144
     18 C           7.8003   -1.7500    0.0000 C.3     1  UNL1        0.1120
     19 C           8.6663   -1.2500    0.0000 C.3     1  UNL1        0.1152
     20 C           8.6663   -0.2500    0.0000 C.3     1  UNL1        0.1454
     21 C           5.2022   -4.2500    0.0000 C.3     1  UNL1        0.1341
     22 C           5.2022   -3.2500    0.0000 C.3     1  UNL1        0.1879
     23 C           4.3362   -4.7500    0.0000 C.3     1  UNL1        0.1140
     24 C           3.4702   -4.2500    0.0000 C.3     1  UNL1        0.1095
     25 C           7.8003    0.2500    0.0000 C.3     1  UNL1        0.2311
     26 C           6.0682   -1.7500    0.0000 C.3     1  UNL1        0.0796
     27 C           3.4702   -3.2500    0.0000 C.3     1  UNL1        0.0873
     28 C           2.6042   -2.7500    0.0000 C.3     1  UNL1       -0.0361
     29 C           6.9343    1.7500    0.0000 C.ar    1  UNL1        0.2138
     30 C           6.9343    2.7500    0.0000 C.ar    1  UNL1        0.1810
     31 C           6.0682    1.2500    0.0000 C.ar    1  UNL1        0.2382
     32 C           5.2022    1.7500    0.0000 C.ar    1  UNL1        0.1092
     33 C           7.8003    3.2500    0.0000 C.ar    1  UNL1        0.0247
     34 C           5.2022    2.7500    0.0000 C.ar    1  UNL1        0.1465
     35 C           4.3083    1.2153    0.0000 C.ar    1  UNL1        0.1348
     36 C           4.3083    3.2847    0.0000 C.ar    1  UNL1        0.0231
     37 C           7.8003    4.2500    0.0000 C.ar    1  UNL1       -0.0057
     38 C           8.6663    2.7500    0.0000 C.ar    1  UNL1       -0.0473
     39 C           3.4022    1.7292    0.0000 C.ar    1  UNL1        0.0223
     40 C           3.4022    2.7708    0.0000 C.ar    1  UNL1        0.1239
     41 C           8.6663    4.7500    0.0000 C.ar    1  UNL1        0.1589
     42 C           9.5323    3.2500    0.0000 C.ar    1  UNL1       -0.0159
     43 C           9.5323    4.2500    0.0000 C.ar    1  UNL1        0.1583
     44 H           6.3973   -0.9400    0.0000 H       1  UNL1        0.0647
     45 H           8.3372   -2.0600    0.0000 H       1  UNL1        0.0647
     46 H           9.2033   -0.9400    0.0000 H       1  UNL1        0.0648
     47 H           9.2033   -0.5600    0.0000 H       1  UNL1        0.0683
     48 H           5.2022   -4.8700    0.0000 H       1  UNL1        0.0671
     49 H           5.2022   -2.6300    0.0000 H       1  UNL1        0.0937
     50 H           3.7993   -5.0600    0.0000 H       1  UNL1        0.0648
     51 H           2.9332   -3.9400    0.0000 H       1  UNL1        0.0646
     52 H           8.3372    0.5600    0.0000 H       1  UNL1        0.1084
     53 H           5.8562   -1.1674    0.0000 H       1  UNL1        0.0587
     54 H           5.4577   -1.8577    0.0000 H       1  UNL1        0.0587
     55 H           3.4702   -2.6300    0.0000 H       1  UNL1        0.0621
     56 H           2.9141   -2.2131    0.0000 H       1  UNL1        0.0255
     57 H           2.0672   -2.4400    0.0000 H       1  UNL1        0.0255
     58 H           2.2942   -3.2869    0.0000 H       1  UNL1        0.0255
     59 H           8.3372   -3.0600    0.0000 H       1  UNL1        0.2100
     60 H          10.0693   -1.4400    0.0000 H       1  UNL1        0.2100
     61 H           9.5323    0.8700    0.0000 H       1  UNL1        0.2102
     62 H           6.6052   -4.4400    0.0000 H       1  UNL1        0.2101
     63 H           3.7993   -6.0600    0.0000 H       1  UNL1        0.2100
     64 H           2.0672   -4.4400    0.0000 H       1  UNL1        0.2100
     65 H           4.3154    3.9046    0.0000 H       1  UNL1        0.0691
     66 H           7.2634    4.5600    0.0000 H       1  UNL1        0.0662
     67 H           8.6663    2.1300    0.0000 H       1  UNL1        0.0626
     68 H           2.8665    1.4171    0.0000 H       1  UNL1        0.0691
     69 H          10.0693    2.9400    0.0000 H       1  UNL1        0.0655
     70 H           3.7865   -0.1008    0.0000 H       1  UNL1        0.2922
     71 H           2.0000    2.9662    0.0000 H       1  UNL1        0.2921
     72 H           8.1294    6.0600    0.0000 H       1  UNL1        0.2923
     73 H          10.9353    4.4400    0.0000 H       1  UNL1        0.2923
@<TRIPOS>BOND
     1     1    17    1
     2     1    25    1
     3     2    22    1
     4     2    26    1
     5     3    22    1
     6     3    27    1
     7     4    18    1
     8     4    59    1
     9     5    19    1
    10     5    60    1
    11     6    25    1
    12     6    29    1
    13     7    20    1
    14     7    61    1
    15     8    21    1
    16     8    62    1
    17     9    23    1
    18     9    63    1
    19    10    24    1
    20    10    64    1
    21    11    30   ar
    22    11    34   ar
    23    12    31    2
    24    13    35    1
    25    13    70    1
    26    14    40    1
    27    14    71    1
    28    15    41    1
    29    15    72    1
    30    16    43    1
    31    16    73    1
    32    17    18    1
    33    17    26    1
    34    17    44    1
    35    18    19    1
    36    18    45    1
    37    19    20    1
    38    19    46    1
    39    20    25    1
    40    20    47    1
    41    21    22    1
    42    21    23    1
    43    21    48    1
    44    22    49    1
    45    23    24    1
    46    23    50    1
    47    24    27    1
    48    24    51    1
    49    25    52    1
    50    26    53    1
    51    26    54    1
    52    27    28    1
    53    27    55    1
    54    28    56    1
    55    28    57    1
    56    28    58    1
    57    29    30   ar
    58    29    31   ar
    59    30    33    1
    60    31    32   ar
    61    32    34   ar
    62    32    35   ar
    63    33    37   ar
    64    33    38   ar
    65    34    36   ar
    66    35    39   ar
    67    36    40   ar
    68    36    65    1
    69    37    41   ar
    70    37    66    1
    71    38    42   ar
    72    38    67    1
    73    39    40   ar
    74    39    68    1
    75    41    43   ar
    76    42    43   ar
    77    42    69    1
