@<TRIPOS>MOLECULE
IMPHY010447
 163 171 0 0 0
SMALL
GASTEIGER

@<TRIPOS>ATOM
      1 O           6.8671   -5.1772    0.0000 O.3     1  UNL1       -0.3448
      2 O           8.6424    4.1772    0.0000 O.3     1  UNL1       -0.3423
      3 O           6.8270    5.2161    0.0000 O.3     1  UNL1       -0.3887
      4 O           9.3112   -4.4856    0.0000 O.3     1  UNL1       -0.3944
      5 O           5.1350   -5.1772    0.0000 O.3     1  UNL1       -0.3315
      6 O           7.7764    5.6772    0.0000 O.3     1  UNL1       -0.3461
      7 O           6.8671   -7.1772    0.0000 O.3     1  UNL1       -0.3378
      8 O          10.3745    5.1772    0.0000 O.3     1  UNL1       -0.3841
      9 O           5.1350   -8.1773    0.0000 O.3     1  UNL1       -0.3864
     10 O          10.3745    7.1772    0.0000 O.3     1  UNL1       -0.3401
     11 O           3.4030   -7.1772    0.0000 O.3     1  UNL1       -0.3860
     12 O           8.6424    8.1773    0.0000 O.3     1  UNL1       -0.3868
     13 O           6.0010   -8.6773    0.0000 O.3     1  UNL1       -0.3405
     14 O           2.5369   -5.6772    0.0000 O.3     1  UNL1       -0.4788
     15 O           3.4030   -4.1772    0.0000 O.2     1  UNL1       -0.2480
     16 O           9.5085    8.6773    0.0000 O.3     1  UNL1       -0.3405
     17 O           8.5991   -8.1773    0.0000 O.3     1  UNL1       -0.3841
     18 O           8.5991  -10.1773    0.0000 O.3     1  UNL1       -0.3864
     19 O          12.1066    8.1773    0.0000 O.3     1  UNL1       -0.3841
     20 O           6.8671  -11.1773    0.0000 O.3     1  UNL1       -0.3865
     21 O          12.1066   10.1773    0.0000 O.3     1  UNL1       -0.3864
     22 O          10.3745   11.1773    0.0000 O.3     1  UNL1       -0.3865
     23 O           5.1350  -11.1773    0.0000 O.3     1  UNL1       -0.3924
     24 O           7.7764    9.6773    0.0000 O.3     1  UNL1       -0.3924
     25 C           7.7681   -0.4770    0.0000 C.3     1  UNL1       -0.0194
     26 C           6.9040   -0.9804    0.0000 C.3     1  UNL1       -0.0257
     27 C           6.8920   -2.0219    0.0000 C.3     1  UNL1       -0.0249
     28 C           7.7643    0.5230    0.0000 C.3     1  UNL1       -0.0051
     29 C           7.7920   -2.5462    0.0000 C.3     1  UNL1       -0.0255
     30 C           8.6801   -0.9804    0.0000 C.3     1  UNL1       -0.0463
     31 C           6.8963    1.0196    0.0000 C.2     1  UNL1       -0.0633
     32 C           6.8762    2.0611    0.0000 C.3     1  UNL1       -0.0110
     33 C           8.6921   -2.0219    0.0000 C.3     1  UNL1       -0.0485
     34 C           7.8046   -3.6311    0.0000 C.3     1  UNL1        0.0206
     35 C           7.7722    2.5923    0.0000 C.3     1  UNL1        0.0033
     36 C           8.6723    1.0333    0.0000 C.3     1  UNL1       -0.0428
     37 C           6.0361   -0.4837    0.0000 C.3     1  UNL1       -0.0306
     38 C           5.9421   -2.5462    0.0000 C.3     1  UNL1       -0.0447
     39 C           8.6763    2.0749    0.0000 C.3     1  UNL1       -0.0438
     40 C           8.7522   -0.2996    0.0000 C.3     1  UNL1       -0.0585
     41 C           6.8671   -4.1772    0.0000 C.3     1  UNL1        0.0695
     42 C           6.0322    0.5163    0.0000 C.2     1  UNL1       -0.0836
     43 C           6.0279   -1.5186    0.0000 C.3     1  UNL1       -0.0590
     44 C           5.9295   -3.6311    0.0000 C.3     1  UNL1       -0.0254
     45 C           8.7497    0.3531    0.0000 C.3     1  UNL1       -0.0553
     46 C           5.9223    2.5780    0.0000 C.3     1  UNL1       -0.0383
     47 C           7.7764    3.6772    0.0000 C.3     1  UNL1        0.0940
     48 C           5.9014    3.6628    0.0000 C.3     1  UNL1       -0.0059
     49 C           6.8347    4.2161    0.0000 C.3     1  UNL1        0.0870
     50 C           8.8046   -3.6234    0.0000 C.3     1  UNL1        0.0522
     51 C           8.3113   -4.4933    0.0000 C.3     1  UNL1       -0.0548
     52 C           8.6324    3.1022    0.0000 C.3     1  UNL1       -0.0566
     53 C           4.9015    3.6474    0.0000 C.3     1  UNL1       -0.0574
     54 C           5.3881    4.5210    0.0000 C.3     1  UNL1       -0.0574
     55 C           6.0010   -5.6772    0.0000 C.3     1  UNL1        0.1892
     56 C           8.6424    5.1772    0.0000 C.3     1  UNL1        0.1879
     57 C           6.0010   -6.6772    0.0000 C.3     1  UNL1        0.1407
     58 C           9.5085    5.6772    0.0000 C.3     1  UNL1        0.1345
     59 C           5.1350   -7.1772    0.0000 C.3     1  UNL1        0.1149
     60 C           9.5085    6.6772    0.0000 C.3     1  UNL1        0.1202
     61 C           4.2690   -5.6772    0.0000 C.3     1  UNL1        0.1859
     62 C           4.2690   -6.6772    0.0000 C.3     1  UNL1        0.1202
     63 C           7.7764    6.6772    0.0000 C.3     1  UNL1        0.0792
     64 C           8.6424    7.1772    0.0000 C.3     1  UNL1        0.1073
     65 C           6.8671   -8.1773    0.0000 C.3     1  UNL1        0.1885
     66 C           3.4030   -5.1772    0.0000 C.2     1  UNL1        0.3367
     67 C           7.7331   -8.6773    0.0000 C.3     1  UNL1        0.1341
     68 C          10.3745    8.1773    0.0000 C.3     1  UNL1        0.1884
     69 C           7.7331   -9.6773    0.0000 C.3     1  UNL1        0.1141
     70 C          11.2405    8.6773    0.0000 C.3     1  UNL1        0.1341
     71 C           6.0010   -9.6773    0.0000 C.3     1  UNL1        0.1130
     72 C           6.8671  -10.1773    0.0000 C.3     1  UNL1        0.1119
     73 C          11.2405    9.6773    0.0000 C.3     1  UNL1        0.1141
     74 C           9.5085    9.6773    0.0000 C.3     1  UNL1        0.1130
     75 C          10.3745   10.1773    0.0000 C.3     1  UNL1        0.1119
     76 C           5.1350  -10.1773    0.0000 C.3     1  UNL1        0.0730
     77 C           8.6424   10.1773    0.0000 C.3     1  UNL1        0.0730
     78 H           7.4398   -1.2924    0.0000 H       1  UNL1        0.0315
     79 H           8.3314   -2.8521    0.0000 H       1  UNL1        0.0313
     80 H           9.2921   -1.0794    0.0000 H       1  UNL1        0.0271
     81 H           8.8824   -0.3943    0.0000 H       1  UNL1        0.0271
     82 H           6.1502    1.6192    0.0000 H       1  UNL1        0.0352
     83 H           8.9079   -2.6032    0.0000 H       1  UNL1        0.0268
     84 H           9.3017   -1.9088    0.0000 H       1  UNL1        0.0268
     85 H           8.8791    0.4488    0.0000 H       1  UNL1        0.0274
     86 H           9.2836    1.1370    0.0000 H       1  UNL1        0.0274
     87 H           5.4251   -0.3784    0.0000 H       1  UNL1        0.0310
     88 H           5.8263   -1.0671    0.0000 H       1  UNL1        0.0310
     89 H           5.7398   -1.9602    0.0000 H       1  UNL1        0.0271
     90 H           5.3300   -2.6452    0.0000 H       1  UNL1        0.0271
     91 H           9.2868    1.9665    0.0000 H       1  UNL1        0.0272
     92 H           8.8876    2.6578    0.0000 H       1  UNL1        0.0272
     93 H           8.8623   -0.9098    0.0000 H       1  UNL1        0.0235
     94 H           9.3624   -0.1896    0.0000 H       1  UNL1        0.0235
     95 H           8.6422    0.3106    0.0000 H       1  UNL1        0.0235
     96 H           7.4046   -4.4862    0.0000 H       1  UNL1        0.0603
     97 H           5.4941    0.8242    0.0000 H       1  UNL1        0.0572
     98 H           6.3400   -0.9829    0.0000 H       1  UNL1        0.0235
     99 H           5.4922   -1.2065    0.0000 H       1  UNL1        0.0235
    100 H           5.7158   -2.0543    0.0000 H       1  UNL1        0.0235
    101 H           5.3199   -3.5180    0.0000 H       1  UNL1        0.0290
    102 H           5.7137   -4.2124    0.0000 H       1  UNL1        0.0290
    103 H           8.6444   -0.2579    0.0000 H       1  UNL1        0.0238
    104 H           9.3607    0.2478    0.0000 H       1  UNL1        0.0238
    105 H           8.8550    0.9641    0.0000 H       1  UNL1        0.0238
    106 H           5.3095    2.6723    0.0000 H       1  UNL1        0.0277
    107 H           5.7246    1.9904    0.0000 H       1  UNL1        0.0277
    108 H           7.7752    4.2972    0.0000 H       1  UNL1        0.0629
    109 H           7.3698    4.5292    0.0000 H       1  UNL1        0.0625
    110 H           9.3855   -3.4069    0.0000 H       1  UNL1        0.0563
    111 H           8.6922   -3.0137    0.0000 H       1  UNL1        0.0563
    112 H           7.7767   -4.8074    0.0000 H       1  UNL1        0.0237
    113 H           8.6254   -5.0278    0.0000 H       1  UNL1        0.0237
    114 H           8.8458   -4.1792    0.0000 H       1  UNL1        0.0237
    115 H           8.9486    2.5689    0.0000 H       1  UNL1        0.0236
    116 H           9.1657    3.4184    0.0000 H       1  UNL1        0.0236
    117 H           8.3162    3.6356    0.0000 H       1  UNL1        0.0236
    118 H           4.8920    4.2673    0.0000 H       1  UNL1        0.0236
    119 H           4.2816    3.6378    0.0000 H       1  UNL1        0.0236
    120 H           4.9111    3.0275    0.0000 H       1  UNL1        0.0236
    121 H           5.9202    4.8392    0.0000 H       1  UNL1        0.0236
    122 H           5.0699    5.0531    0.0000 H       1  UNL1        0.0236
    123 H           4.8560    4.2028    0.0000 H       1  UNL1        0.0236
    124 H           6.2877    5.5220    0.0000 H       1  UNL1        0.2099
    125 H           6.0010   -5.0572    0.0000 H       1  UNL1        0.0938
    126 H           9.9312   -4.4808    0.0000 H       1  UNL1        0.2094
    127 H           8.1055    4.8672    0.0000 H       1  UNL1        0.0937
    128 H           6.0010   -7.2972    0.0000 H       1  UNL1        0.0675
    129 H          10.0454    5.9873    0.0000 H       1  UNL1        0.0671
    130 H           4.5981   -7.4872    0.0000 H       1  UNL1        0.0648
    131 H           9.5085    7.2972    0.0000 H       1  UNL1        0.0651
    132 H           4.2690   -5.0572    0.0000 H       1  UNL1        0.0741
    133 H           3.7320   -6.3672    0.0000 H       1  UNL1        0.0652
    134 H           7.5644    7.2599    0.0000 H       1  UNL1        0.0587
    135 H           7.1658    6.5696    0.0000 H       1  UNL1        0.0587
    136 H           8.1055    7.4872    0.0000 H       1  UNL1        0.0643
    137 H          10.9114    5.4873    0.0000 H       1  UNL1        0.2101
    138 H           7.4040   -7.8672    0.0000 H       1  UNL1        0.0938
    139 H           4.5981   -8.4872    0.0000 H       1  UNL1        0.2100
    140 H           3.4030   -7.7972    0.0000 H       1  UNL1        0.2100
    141 H           8.1055    8.4872    0.0000 H       1  UNL1        0.2100
    142 H           8.2700   -8.9872    0.0000 H       1  UNL1        0.0671
    143 H           9.8376    7.8672    0.0000 H       1  UNL1        0.0938
    144 H           7.7331  -10.2973    0.0000 H       1  UNL1        0.0648
    145 H          11.7775    8.9872    0.0000 H       1  UNL1        0.0671
    146 H           5.4641   -9.3672    0.0000 H       1  UNL1        0.0647
    147 H           2.0000   -5.3672    0.0000 H       1  UNL1        0.2951
    148 H           7.4040  -10.4873    0.0000 H       1  UNL1        0.0647
    149 H          11.2405   10.2973    0.0000 H       1  UNL1        0.0648
    150 H           9.1360   -8.4872    0.0000 H       1  UNL1        0.2101
    151 H           8.9715    9.3672    0.0000 H       1  UNL1        0.0647
    152 H           9.8376   10.4873    0.0000 H       1  UNL1        0.0647
    153 H           4.9230   -9.5946    0.0000 H       1  UNL1        0.0584
    154 H           4.5244  -10.2849    0.0000 H       1  UNL1        0.0584
    155 H           8.5991  -10.7973    0.0000 H       1  UNL1        0.2100
    156 H          12.6435    8.4872    0.0000 H       1  UNL1        0.2101
    157 H           7.4040  -11.4873    0.0000 H       1  UNL1        0.2100
    158 H           9.0410   10.6522    0.0000 H       1  UNL1        0.0584
    159 H           8.2439   10.6522    0.0000 H       1  UNL1        0.0584
    160 H          12.1066   10.7973    0.0000 H       1  UNL1        0.2100
    161 H           9.8376   11.4873    0.0000 H       1  UNL1        0.2100
    162 H           4.5981  -11.4873    0.0000 H       1  UNL1        0.2095
    163 H           7.2395    9.9872    0.0000 H       1  UNL1        0.2095
@<TRIPOS>BOND
     1     1    41    1
     2    55     1    1
     3    47     2    1
     4    56     2    1
     5    49     3    1
     6     3   124    1
     7     4    50    1
     8     4   126    1
     9     5    55    1
    10     5    61    1
    11     6    56    1
    12     6    63    1
    13    57     7    1
    14    65     7    1
    15    58     8    1
    16     8   137    1
    17    59     9    1
    18     9   139    1
    19    60    10    1
    20    68    10    1
    21    62    11    1
    22    11   140    1
    23    64    12    1
    24    12   141    1
    25    13    65    1
    26    13    71    1
    27    14    66    1
    28    14   147    1
    29    15    66    2
    30    16    68    1
    31    16    74    1
    32    67    17    1
    33    17   150    1
    34    69    18    1
    35    18   155    1
    36    70    19    1
    37    19   156    1
    38    72    20    1
    39    20   157    1
    40    73    21    1
    41    21   160    1
    42    75    22    1
    43    22   161    1
    44    23    76    1
    45    23   162    1
    46    24    77    1
    47    24   163    1
    48    25    26    1
    49    25    28    1
    50    25    30    1
    51    25    40    1
    52    26    27    1
    53    26    37    1
    54    26    78    1
    55    27    29    1
    56    27    38    1
    57    27    43    1
    58    28    31    1
    59    28    36    1
    60    28    45    1
    61    29    33    1
    62    29    34    1
    63    29    79    1
    64    30    33    1
    65    30    80    1
    66    30    81    1
    67    31    32    1
    68    31    42    2
    69    32    35    1
    70    32    46    1
    71    32    82    1
    72    33    83    1
    73    33    84    1
    74    34    41    1
    75    34    50    1
    76    34    51    1
    77    35    39    1
    78    35    47    1
    79    35    52    1
    80    36    39    1
    81    36    85    1
    82    36    86    1
    83    37    42    1
    84    37    87    1
    85    37    88    1
    86    38    44    1
    87    38    89    1
    88    38    90    1
    89    39    91    1
    90    39    92    1
    91    40    93    1
    92    40    94    1
    93    40    95    1
    94    41    44    1
    95    41    96    1
    96    42    97    1
    97    43    98    1
    98    43    99    1
    99    43   100    1
   100    44   101    1
   101    44   102    1
   102    45   103    1
   103    45   104    1
   104    45   105    1
   105    46    48    1
   106    46   106    1
   107    46   107    1
   108    47    49    1
   109    47   108    1
   110    48    49    1
   111    48    53    1
   112    48    54    1
   113    49   109    1
   114    50   110    1
   115    50   111    1
   116    51   112    1
   117    51   113    1
   118    51   114    1
   119    52   115    1
   120    52   116    1
   121    52   117    1
   122    53   118    1
   123    53   119    1
   124    53   120    1
   125    54   121    1
   126    54   122    1
   127    54   123    1
   128    55    57    1
   129    55   125    1
   130    56    58    1
   131    56   127    1
   132    57    59    1
   133    57   128    1
   134    58    60    1
   135    58   129    1
   136    59    62    1
   137    59   130    1
   138    60    64    1
   139    60   131    1
   140    61    62    1
   141    61    66    1
   142    61   132    1
   143    62   133    1
   144    63    64    1
   145    63   134    1
   146    63   135    1
   147    64   136    1
   148    65    67    1
   149    65   138    1
   150    67    69    1
   151    67   142    1
   152    68    70    1
   153    68   143    1
   154    69    72    1
   155    69   144    1
   156    70    73    1
   157    70   145    1
   158    71    72    1
   159    71    76    1
   160    71   146    1
   161    72   148    1
   162    73    75    1
   163    73   149    1
   164    74    75    1
   165    74    77    1
   166    74   151    1
   167    75   152    1
   168    76   153    1
   169    76   154    1
   170    77   158    1
   171    77   159    1
