@<TRIPOS>MOLECULE
IMPHY000712
 44 48 0 0 0
SMALL
GASTEIGER

@<TRIPOS>ATOM
      1 O           8.7939   -1.3824    0.0000 O.3     1  UNL1       -0.4562
      2 O           6.3981   -3.3824    0.0000 O.3     1  UNL1       -0.5057
      3 O           8.0011    2.7846    0.0000 O.3     1  UNL1       -0.4526
      4 O           6.6073    3.5894    0.0000 O.3     1  UNL1       -0.4526
      5 O           2.8680   -0.3583    0.0000 O.3     1  UNL1       -0.4914
      6 O           2.8680   -2.4066    0.0000 O.3     1  UNL1       -0.4914
      7 O           8.5210    0.3728    0.0000 O.2     1  UNL1       -0.2449
      8 C           6.3981   -0.3824    0.0000 C.ar    1  UNL1        0.0046
      9 C           7.2641   -0.8824    0.0000 C.ar    1  UNL1        0.0771
     10 C           7.2641   -1.8824    0.0000 C.ar    1  UNL1        0.0463
     11 C           5.5320   -0.8824    0.0000 C.ar    1  UNL1       -0.0022
     12 C           5.5320   -1.8824    0.0000 C.ar    1  UNL1        0.0282
     13 C           6.3981   -2.3824    0.0000 C.ar    1  UNL1        0.1319
     14 C           6.3981    0.6176    0.0000 C.ar    1  UNL1       -0.0128
     15 C           8.2103   -2.1872    0.0000 C.3     1  UNL1        0.1220
     16 C           8.2103   -0.5777    0.0000 C.2     1  UNL1        0.3406
     17 C           4.6381   -0.3478    0.0000 C.ar    1  UNL1       -0.0079
     18 C           4.6381   -2.4171    0.0000 C.ar    1  UNL1       -0.0051
     19 C           7.2641    1.1176    0.0000 C.ar    1  UNL1       -0.0084
     20 C           3.7320   -0.8616    0.0000 C.ar    1  UNL1        0.1621
     21 C           3.7320   -1.9032    0.0000 C.ar    1  UNL1        0.1622
     22 C           5.5320    1.1176    0.0000 C.ar    1  UNL1       -0.0503
     23 C           7.2641    2.1176    0.0000 C.ar    1  UNL1        0.1668
     24 C           6.3981    2.6176    0.0000 C.ar    1  UNL1        0.1663
     25 C           5.5320    2.1176    0.0000 C.ar    1  UNL1       -0.0156
     26 C           7.5960    3.6924    0.0000 C.3     1  UNL1        0.2332
     27 C           2.0000   -0.8549    0.0000 C.3     1  UNL1        0.0790
     28 C           2.8718   -3.4066    0.0000 C.3     1  UNL1        0.0790
     29 H           7.9593   -2.7541    0.0000 H       1  UNL1        0.0750
     30 H           8.7477   -2.4964    0.0000 H       1  UNL1        0.0750
     31 H           4.6453    0.2722    0.0000 H       1  UNL1        0.0662
     32 H           4.6453   -3.0371    0.0000 H       1  UNL1        0.0662
     33 H           7.8010    0.8076    0.0000 H       1  UNL1        0.0661
     34 H           4.9951    0.8076    0.0000 H       1  UNL1        0.0625
     35 H           4.9951    2.4276    0.0000 H       1  UNL1        0.0655
     36 H           6.9350   -3.6924    0.0000 H       1  UNL1        0.2922
     37 H           8.1856    3.8842    0.0000 H       1  UNL1        0.1166
     38 H           7.4673    4.2989    0.0000 H       1  UNL1        0.1166
     39 H           1.6921   -0.3168    0.0000 H       1  UNL1        0.0660
     40 H           1.4619   -1.1629    0.0000 H       1  UNL1        0.0660
     41 H           2.3079   -1.3931    0.0000 H       1  UNL1        0.0660
     42 H           2.2518   -3.4090    0.0000 H       1  UNL1        0.0660
     43 H           2.8742   -4.0266    0.0000 H       1  UNL1        0.0660
     44 H           3.4918   -3.4042    0.0000 H       1  UNL1        0.0660
@<TRIPOS>BOND
     1     1    15    1
     2     1    16    1
     3     2    13    1
     4     2    36    1
     5     3    23    1
     6     3    26    1
     7     4    24    1
     8     4    26    1
     9     5    20    1
    10     5    27    1
    11     6    21    1
    12     6    28    1
    13     7    16    2
    14     8     9   ar
    15     8    11   ar
    16     8    14    1
    17     9    10   ar
    18     9    16    1
    19    10    13   ar
    20    10    15    1
    21    11    12   ar
    22    11    17   ar
    23    12    13   ar
    24    12    18   ar
    25    14    19   ar
    26    14    22   ar
    27    15    29    1
    28    15    30    1
    29    17    20   ar
    30    17    31    1
    31    18    21   ar
    32    18    32    1
    33    19    23   ar
    34    19    33    1
    35    20    21   ar
    36    22    25   ar
    37    22    34    1
    38    23    24   ar
    39    24    25   ar
    40    25    35    1
    41    26    37    1
    42    26    38    1
    43    27    39    1
    44    27    40    1
    45    27    41    1
    46    28    42    1
    47    28    43    1
    48    28    44    1
