@<TRIPOS>MOLECULE
IMPHY006172
 38 39 0 0 0
SMALL
GASTEIGER

@<TRIPOS>ATOM
      1 O           2.1861   -0.2671    0.0000 O.2     1  UNL1       -0.2924
      2 C           5.3792   -0.7512    0.0000 C.3     1  UNL1       -0.0161
      3 C           4.6005   -1.3786    0.0000 C.3     1  UNL1       -0.0303
      4 C           5.3742    0.2488    0.0000 C.2     1  UNL1       -0.0628
      5 C           6.3269   -1.0512    0.0000 C.3     1  UNL1       -0.0425
      6 C           6.9065   -0.2436    0.0000 C.3     1  UNL1       -0.0312
      7 C           6.3189    0.5582    0.0000 C.2     1  UNL1       -0.0728
      8 C           3.6244   -1.1609    0.0000 C.3     1  UNL1        0.0133
      9 C           4.5893    0.8684    0.0000 C.3     1  UNL1       -0.0027
     10 C           4.8278   -2.3524    0.0000 C.3     1  UNL1       -0.0615
     11 C           3.6155    0.6410    0.0000 C.2     1  UNL1       -0.0023
     12 C           3.1861   -0.2621    0.0000 C.2     1  UNL1        0.1597
     13 C           6.6248    1.5103    0.0000 C.3     1  UNL1       -0.0435
     14 C           2.9881    1.4197    0.0000 C.2     1  UNL1       -0.0689
     15 C           3.3488    2.3524    0.0000 C.3     1  UNL1       -0.0434
     16 C           2.0000    1.2657    0.0000 C.3     1  UNL1       -0.0434
     17 H           5.4937   -1.3605    0.0000 H       1  UNL1        0.0349
     18 H           4.1642   -1.8192    0.0000 H       1  UNL1        0.0308
     19 H           6.0787   -1.6194    0.0000 H       1  UNL1        0.0274
     20 H           6.8658   -1.3578    0.0000 H       1  UNL1        0.0274
     21 H           7.3694   -0.6560    0.0000 H       1  UNL1        0.0310
     22 H           7.3653    0.1734    0.0000 H       1  UNL1        0.0310
     23 H           3.0207   -1.3019    0.0000 H       1  UNL1        0.0348
     24 H           3.6275   -1.7809    0.0000 H       1  UNL1        0.0348
     25 H           5.0721    1.2574    0.0000 H       1  UNL1        0.0359
     26 H           4.3175    1.4256    0.0000 H       1  UNL1        0.0359
     27 H           4.2241   -2.4934    0.0000 H       1  UNL1        0.0233
     28 H           4.9688   -2.9562    0.0000 H       1  UNL1        0.0233
     29 H           5.4316   -2.2114    0.0000 H       1  UNL1        0.0233
     30 H           7.2151    1.3206    0.0000 H       1  UNL1        0.0274
     31 H           6.8145    2.1006    0.0000 H       1  UNL1        0.0274
     32 H           6.0345    1.7000    0.0000 H       1  UNL1        0.0274
     33 H           1.9045    1.8783    0.0000 H       1  UNL1        0.0274
     34 H           1.3874    1.1703    0.0000 H       1  UNL1        0.0274
     35 H           2.0955    0.6531    0.0000 H       1  UNL1        0.0274
     36 H           3.9270    2.1288    0.0000 H       1  UNL1        0.0274
     37 H           3.5724    2.9306    0.0000 H       1  UNL1        0.0274
     38 H           2.7705    2.5760    0.0000 H       1  UNL1        0.0274
@<TRIPOS>BOND
     1     1    12    2
     2     2     3    1
     3     2     4    1
     4     2     5    1
     5     2    17    1
     6     3     8    1
     7     3    10    1
     8     3    18    1
     9     4     7    2
    10     4     9    1
    11     5     6    1
    12     5    19    1
    13     5    20    1
    14     6     7    1
    15     6    21    1
    16     6    22    1
    17     7    13    1
    18     8    12    1
    19     8    23    1
    20     8    24    1
    21     9    11    1
    22     9    25    1
    23     9    26    1
    24    10    27    1
    25    10    28    1
    26    10    29    1
    27    11    12    1
    28    11    14    2
    29    13    30    1
    30    13    31    1
    31    13    32    1
    32    14    15    1
    33    14    16    1
    34    15    36    1
    35    15    37    1
    36    15    38    1
    37    16    33    1
    38    16    34    1
    39    16    35    1
