@<TRIPOS>MOLECULE
IMPHY004950
 107 111 0 0 0
SMALL
GASTEIGER

@<TRIPOS>ATOM
      1 O           8.0703   -2.6344    0.0000 O.3     1  UNL1       -0.4577
      2 O           7.2101   -1.1311    0.0000 O.2     1  UNL1       -0.2456
      3 O           2.0101   -2.1110    0.0000 O.3     1  UNL1       -0.4914
      4 O           2.0024   -4.1110    0.0000 O.3     1  UNL1       -0.5033
      5 C          13.4634   -0.5820    0.0000 C.3     1  UNL1       -0.0231
      6 C          11.7313   -0.5820    0.0000 C.3     1  UNL1       -0.0230
      7 C          12.5974   -1.0820    0.0000 C.3     1  UNL1       -0.0292
      8 C          13.4634    0.4180    0.0000 C.3     1  UNL1       -0.0233
      9 C          10.8213   -1.0889    0.0000 C.3     1  UNL1       -0.0316
     10 C          14.4096    0.7227    0.0000 C.3     1  UNL1       -0.0325
     11 C          11.7313    0.4180    0.0000 C.3     1  UNL1       -0.0463
     12 C          12.5974    0.9180    0.0000 C.3     1  UNL1       -0.0463
     13 C          10.8133   -2.1305    0.0000 C.3     1  UNL1       -0.0292
     14 C          14.4096   -0.8868    0.0000 C.3     1  UNL1       -0.0466
     15 C          12.6134   -2.1236    0.0000 C.3     1  UNL1       -0.0489
     16 C          14.9932   -0.0820    0.0000 C.3     1  UNL1       -0.0489
     17 C          11.7154   -2.6513    0.0000 C.3     1  UNL1       -0.0491
     18 C          10.8653   -0.0820    0.0000 C.3     1  UNL1       -0.0497
     19 C           9.8779   -2.6802    0.0000 C.3     1  UNL1        0.0053
     20 C          13.4634   -1.5820    0.0000 C.3     1  UNL1       -0.0588
     21 C           9.8945   -0.5248    0.0000 C.3     1  UNL1       -0.0461
     22 C          13.4634    1.4180    0.0000 C.3     1  UNL1       -0.0588
     23 C          14.7203    1.6732    0.0000 C.3     1  UNL1       -0.0403
     24 C           8.9382   -2.1377    0.0000 C.3     1  UNL1        0.1087
     25 C           8.9466   -1.0528    0.0000 C.3     1  UNL1       -0.0149
     26 C          10.8653    0.9180    0.0000 C.3     1  UNL1       -0.0648
     27 C           9.3812   -3.5482    0.0000 C.3     1  UNL1       -0.0562
     28 C          10.3812   -3.5443    0.0000 C.3     1  UNL1       -0.0562
     29 C          15.6988    1.8794    0.0000 C.3     1  UNL1       -0.0467
     30 C          14.0524    2.4175    0.0000 C.3     1  UNL1       -0.0621
     31 C          16.0094    2.8300    0.0000 C.3     1  UNL1       -0.0343
     32 C           7.2062   -2.1310    0.0000 C.2     1  UNL1        0.3322
     33 C          16.9879    3.0362    0.0000 C.2     1  UNL1       -0.0853
     34 C           6.3383   -2.6277    0.0000 C.2     1  UNL1        0.0231
     35 C          17.2986    3.9867    0.0000 C.2     1  UNL1       -0.0796
     36 C           5.4742   -2.1244    0.0000 C.2     1  UNL1       -0.0477
     37 C          18.2771    4.1929    0.0000 C.3     1  UNL1       -0.0440
     38 C          16.6308    4.7310    0.0000 C.3     1  UNL1       -0.0440
     39 C           4.6062   -2.6210    0.0000 C.ar    1  UNL1       -0.0211
     40 C           3.7421   -2.1177    0.0000 C.ar    1  UNL1       -0.0092
     41 C           4.6024   -3.6210    0.0000 C.ar    1  UNL1       -0.0509
     42 C           2.8742   -2.6143    0.0000 C.ar    1  UNL1        0.1618
     43 C           3.7344   -4.1177    0.0000 C.ar    1  UNL1       -0.0160
     44 C           2.8703   -3.6143    0.0000 C.ar    1  UNL1        0.1585
     45 C           2.0140   -1.1110    0.0000 C.3     1  UNL1        0.0790
     46 H          13.3367   -1.5014    0.0000 H       1  UNL1        0.0312
     47 H          11.5525   -1.5224    0.0000 H       1  UNL1        0.0309
     48 H          15.2493    0.8546    0.0000 H       1  UNL1        0.0309
     49 H          11.5193    1.0006    0.0000 H       1  UNL1        0.0271
     50 H          11.1208    0.3103    0.0000 H       1  UNL1        0.0271
     51 H          12.9959    1.3929    0.0000 H       1  UNL1        0.0271
     52 H          12.1988    1.3929    0.0000 H       1  UNL1        0.0271
     53 H          10.8166   -2.9805    0.0000 H       1  UNL1        0.0310
     54 H          14.1586   -1.4537    0.0000 H       1  UNL1        0.0271
     55 H          14.9470   -1.1960    0.0000 H       1  UNL1        0.0271
     56 H          12.8315   -2.7040    0.0000 H       1  UNL1        0.0268
     57 H          13.2226   -2.0080    0.0000 H       1  UNL1        0.0268
     58 H          15.4541   -0.4968    0.0000 H       1  UNL1        0.0268
     59 H          15.4541    0.3327    0.0000 H       1  UNL1        0.0268
     60 H          11.3181   -3.1273    0.0000 H       1  UNL1        0.0268
     61 H          12.1163   -3.1242    0.0000 H       1  UNL1        0.0268
     62 H          10.2547    0.0256    0.0000 H       1  UNL1        0.0268
     63 H          10.6533   -0.6647    0.0000 H       1  UNL1        0.0268
     64 H          12.8434   -1.5820    0.0000 H       1  UNL1        0.0235
     65 H          13.4634   -2.2020    0.0000 H       1  UNL1        0.0235
     66 H          14.0834   -1.5820    0.0000 H       1  UNL1        0.0235
     67 H          10.3027   -0.0582    0.0000 H       1  UNL1        0.0269
     68 H           9.5046   -0.0428    0.0000 H       1  UNL1        0.0269
     69 H          14.0834    1.4180    0.0000 H       1  UNL1        0.0235
     70 H          13.4634    2.0380    0.0000 H       1  UNL1        0.0235
     71 H          12.8434    1.4180    0.0000 H       1  UNL1        0.0235
     72 H          14.9843    2.4812    0.0000 H       1  UNL1        0.0301
     73 H           8.4031   -1.8246    0.0000 H       1  UNL1        0.0739
     74 H           8.7421   -0.4675    0.0000 H       1  UNL1        0.0301
     75 H           8.3350   -1.1541    0.0000 H       1  UNL1        0.0301
     76 H          11.4853    0.9180    0.0000 H       1  UNL1        0.0230
     77 H          10.8653    1.5380    0.0000 H       1  UNL1        0.0230
     78 H          10.2453    0.9180    0.0000 H       1  UNL1        0.0230
     79 H           9.8455   -3.8564    0.0000 H       1  UNL1        0.0236
     80 H          10.6933   -4.0800    0.0000 H       1  UNL1        0.0236
     81 H          10.9170   -3.2322    0.0000 H       1  UNL1        0.0236
     82 H           8.8431   -3.2402    0.0000 H       1  UNL1        0.0236
     83 H           9.0733   -4.0863    0.0000 H       1  UNL1        0.0236
     84 H           9.9194   -3.8561    0.0000 H       1  UNL1        0.0236
     85 H          15.7193    1.2598    0.0000 H       1  UNL1        0.0271
     86 H          16.3126    1.7921    0.0000 H       1  UNL1        0.0271
     87 H          14.5139    2.8316    0.0000 H       1  UNL1        0.0233
     88 H          13.6384    2.8790    0.0000 H       1  UNL1        0.0233
     89 H          13.5910    2.0034    0.0000 H       1  UNL1        0.0233
     90 H          15.9889    3.4496    0.0000 H       1  UNL1        0.0307
     91 H          15.3956    2.9173    0.0000 H       1  UNL1        0.0307
     92 H          17.4020    2.5747    0.0000 H       1  UNL1        0.0571
     93 H           6.3359   -3.2477    0.0000 H       1  UNL1        0.0689
     94 H           5.4766   -1.5044    0.0000 H       1  UNL1        0.0626
     95 H          18.4050    3.5862    0.0000 H       1  UNL1        0.0274
     96 H          18.8838    4.3208    0.0000 H       1  UNL1        0.0274
     97 H          18.1493    4.7996    0.0000 H       1  UNL1        0.0274
     98 H          17.0922    5.1450    0.0000 H       1  UNL1        0.0274
     99 H          16.2167    5.1925    0.0000 H       1  UNL1        0.0274
    100 H          16.1693    4.3169    0.0000 H       1  UNL1        0.0274
    101 H           3.7445   -1.4977    0.0000 H       1  UNL1        0.0661
    102 H           5.1381   -3.9331    0.0000 H       1  UNL1        0.0625
    103 H           3.7320   -4.7377    0.0000 H       1  UNL1        0.0655
    104 H           2.0000   -4.7310    0.0000 H       1  UNL1        0.2923
    105 H           2.6340   -1.1134    0.0000 H       1  UNL1        0.0660
    106 H           2.0163   -0.4910    0.0000 H       1  UNL1        0.0660
    107 H           1.3940   -1.1086    0.0000 H       1  UNL1        0.0660
@<TRIPOS>BOND
     1    24     1    1
     2     1    32    1
     3     2    32    2
     4     3    42    1
     5     3    45    1
     6     4    44    1
     7     4   104    1
     8     5     7    1
     9     5     8    1
    10     5    14    1
    11     5    20    1
    12     6     7    1
    13     6     9    1
    14     6    11    1
    15     6    18    1
    16     7    15    1
    17     7    46    1
    18     8    10    1
    19     8    12    1
    20     8    22    1
    21     9    13    1
    22     9    21    1
    23     9    47    1
    24    10    16    1
    25    10    23    1
    26    10    48    1
    27    11    12    1
    28    11    49    1
    29    11    50    1
    30    12    51    1
    31    12    52    1
    32    13    17    1
    33    13    19    1
    34    13    53    1
    35    14    16    1
    36    14    54    1
    37    14    55    1
    38    15    17    1
    39    15    56    1
    40    15    57    1
    41    16    58    1
    42    16    59    1
    43    17    60    1
    44    17    61    1
    45    18    26    1
    46    18    62    1
    47    18    63    1
    48    19    24    1
    49    19    27    1
    50    19    28    1
    51    20    64    1
    52    20    65    1
    53    20    66    1
    54    21    25    1
    55    21    67    1
    56    21    68    1
    57    22    69    1
    58    22    70    1
    59    22    71    1
    60    23    29    1
    61    23    30    1
    62    23    72    1
    63    24    25    1
    64    24    73    1
    65    25    74    1
    66    25    75    1
    67    26    76    1
    68    26    77    1
    69    26    78    1
    70    27    82    1
    71    27    83    1
    72    27    84    1
    73    28    79    1
    74    28    80    1
    75    28    81    1
    76    29    31    1
    77    29    85    1
    78    29    86    1
    79    30    87    1
    80    30    88    1
    81    30    89    1
    82    31    33    1
    83    31    90    1
    84    31    91    1
    85    32    34    1
    86    33    35    2
    87    33    92    1
    88    34    36    2
    89    34    93    1
    90    35    37    1
    91    35    38    1
    92    36    39    1
    93    36    94    1
    94    37    95    1
    95    37    96    1
    96    37    97    1
    97    38    98    1
    98    38    99    1
    99    38   100    1
   100    39    40   ar
   101    39    41   ar
   102    40    42   ar
   103    40   101    1
   104    41    43   ar
   105    41   102    1
   106    42    44   ar
   107    43    44   ar
   108    43   103    1
   109    45   105    1
   110    45   106    1
   111    45   107    1
