@<TRIPOS>MOLECULE
IMPHY002116
 50 55 0 0 0
SMALL
GASTEIGER

@<TRIPOS>ATOM
      1 O           3.8076    1.3444    0.0000 O.3     1  UNL1       -0.4602
      2 O           7.6812   -0.2434    0.0000 O.3     1  UNL1       -0.3733
      3 O           5.0332    2.5682    0.0000 O.2     1  UNL1       -0.2512
      4 N           6.1798   -0.8097    0.0000 N.3     1  UNL1       -0.2660
      5 N           4.0899   -1.7652    0.0000 N.pl3   1  UNL1       -0.3383
      6 C           4.5153   -0.4559    0.0000 C.3     1  UNL1        0.0558
      7 C           6.4862    0.6318    0.0000 C.3     1  UNL1        0.0194
      8 C           5.9169   -0.0005    0.0000 C.3     1  UNL1        0.0211
      9 C           5.6105   -1.4420    0.0000 C.3     1  UNL1        0.0331
     10 C           4.7782   -1.2651    0.0000 C.3     1  UNL1        0.0494
     11 C           4.5142    0.6368    0.0000 C.3     1  UNL1        0.1192
     12 C           5.0846    0.1764    0.0000 C.3     1  UNL1       -0.0219
     13 C           6.7056   -2.4281    0.0000 C.3     1  UNL1       -0.0071
     14 C           5.8734   -2.2512    0.0000 C.3     1  UNL1       -0.0284
     15 C           7.0121   -0.9866    0.0000 C.3     1  UNL1        0.1316
     16 C           3.6645   -0.4559    0.0000 C.ar    1  UNL1       -0.0150
     17 C           7.2750   -1.7958    0.0000 C.2     1  UNL1       -0.0273
     18 C           3.4016   -1.2651    0.0000 C.ar    1  UNL1        0.0313
     19 C           3.0952    0.1764    0.0000 C.ar    1  UNL1       -0.0561
     20 C           8.2531   -2.0037    0.0000 C.2     1  UNL1       -0.0839
     21 C           2.5693   -1.4420    0.0000 C.ar    1  UNL1       -0.0406
     22 C           4.0671    2.3101    0.0000 C.2     1  UNL1        0.3042
     23 C           2.2629   -0.0005    0.0000 C.ar    1  UNL1       -0.0614
     24 C           2.0000   -0.8097    0.0000 C.ar    1  UNL1       -0.0600
     25 C           8.5621   -2.9547    0.0000 C.3     1  UNL1       -0.0464
     26 C           3.3605    3.0177    0.0000 C.3     1  UNL1        0.0332
     27 H           6.9092    1.0851    0.0000 H       1  UNL1        0.0358
     28 H           5.7347    0.8298    0.0000 H       1  UNL1        0.0468
     29 H           5.2921   -2.2301    0.0000 H       1  UNL1        0.0482
     30 H           4.7788   -2.1151    0.0000 H       1  UNL1        0.0523
     31 H           4.7523    1.2092    0.0000 H       1  UNL1        0.0747
     32 H           5.3169    0.7513    0.0000 H       1  UNL1        0.0291
     33 H           4.5588    0.5050    0.0000 H       1  UNL1        0.0291
     34 H           6.9683   -3.2365    0.0000 H       1  UNL1        0.0352
     35 H           5.2594   -2.3374    0.0000 H       1  UNL1        0.0287
     36 H           5.8518   -2.8708    0.0000 H       1  UNL1        0.0287
     37 H           7.6185   -1.1155    0.0000 H       1  UNL1        0.0817
     38 H           4.0951   -2.3852    0.0000 H       1  UNL1        0.1464
     39 H           3.2868    0.7661    0.0000 H       1  UNL1        0.0621
     40 H           8.6680   -1.5429    0.0000 H       1  UNL1        0.0570
     41 H           8.2876   -0.3723    0.0000 H       1  UNL1        0.2118
     42 H           2.3777   -2.0316    0.0000 H       1  UNL1        0.0636
     43 H           1.8481    0.4603    0.0000 H       1  UNL1        0.0618
     44 H           1.3936   -0.9386    0.0000 H       1  UNL1        0.0618
     45 H           7.9725   -3.1463    0.0000 H       1  UNL1        0.0272
     46 H           8.7537   -3.5444    0.0000 H       1  UNL1        0.0272
     47 H           9.1518   -2.7632    0.0000 H       1  UNL1        0.0272
     48 H           3.7992    3.4558    0.0000 H       1  UNL1        0.0342
     49 H           2.9224    3.4564    0.0000 H       1  UNL1        0.0342
     50 H           2.9217    2.5796    0.0000 H       1  UNL1        0.0342
@<TRIPOS>BOND
     1     1    11    1
     2     1    22    1
     3    15     2    1
     4     2    41    1
     5     3    22    2
     6     4     8    1
     7     4     9    1
     8     4    15    1
     9     5    10    1
    10     5    18    1
    11     5    38    1
    12     6    10    1
    13     6    11    1
    14     6    12    1
    15     6    16    1
    16     7     8    1
    17     7    11    1
    18     7    13    1
    19     7    27    1
    20     8    12    1
    21     8    28    1
    22     9    10    1
    23     9    14    1
    24     9    29    1
    25    10    30    1
    26    11    31    1
    27    12    32    1
    28    12    33    1
    29    13    14    1
    30    13    17    1
    31    13    34    1
    32    14    35    1
    33    14    36    1
    34    15    17    1
    35    15    37    1
    36    16    18   ar
    37    16    19   ar
    38    17    20    2
    39    18    21   ar
    40    19    23   ar
    41    19    39    1
    42    20    25    1
    43    20    40    1
    44    21    24   ar
    45    21    42    1
    46    22    26    1
    47    23    24   ar
    48    23    43    1
    49    24    44    1
    50    25    45    1
    51    25    46    1
    52    25    47    1
    53    26    48    1
    54    26    49    1
    55    26    50    1
