@<TRIPOS>MOLECULE
IMPHY001216
 51 53 0 0 0
SMALL
GASTEIGER

@<TRIPOS>ATOM
      1 O           2.5381    0.2048    0.0000 O.3     1  UNL1       -0.3843
      2 O           2.5381   -1.8435    0.0000 O.2     1  UNL1       -0.2941
      3 O           5.1804    1.7121    0.0000 O.2     1  UNL1       -0.2923
      4 C           5.2022   -0.3193    0.0000 C.3     1  UNL1       -0.0155
      5 C           5.2022   -1.3193    0.0000 C.3     1  UNL1       -0.0229
      6 C           6.0682    0.1807    0.0000 C.3     1  UNL1        0.0306
      7 C           6.9343   -0.3193    0.0000 C.3     1  UNL1       -0.0241
      8 C           4.3083   -1.8540    0.0000 C.3     1  UNL1        0.0293
      9 C           6.0682   -1.8193    0.0000 C.3     1  UNL1       -0.0485
     10 C           4.3083    0.2153    0.0000 C.3     1  UNL1       -0.0135
     11 C           6.9343   -1.3193    0.0000 C.3     1  UNL1       -0.0487
     12 C           7.8443    0.1875    0.0000 C.3     1  UNL1       -0.0151
     13 C           5.2022    0.6807    0.0000 C.3     1  UNL1       -0.0585
     14 C           3.4022   -0.2985    0.0000 C.3     1  UNL1        0.1140
     15 C           3.4022   -1.3402    0.0000 C.2     1  UNL1        0.1674
     16 C           6.0522    1.2222    0.0000 C.2     1  UNL1        0.1602
     17 C           3.8183   -2.7258    0.0000 C.3     1  UNL1       -0.0527
     18 C           4.8183   -2.7142    0.0000 C.3     1  UNL1       -0.0527
     19 C           7.8523    1.2291    0.0000 C.2     1  UNL1       -0.0415
     20 C           6.9502    1.7499    0.0000 C.2     1  UNL1       -0.0155
     21 C           8.7045   -0.3225    0.0000 C.3     1  UNL1       -0.0581
     22 C           8.7202    1.7258    0.0000 C.2     1  UNL1       -0.0653
     23 C           8.7241    2.7258    0.0000 C.2     1  UNL1       -0.0984
     24 H           5.2088   -2.1693    0.0000 H       1  UNL1        0.0315
     25 H           6.8011    0.6113    0.0000 H       1  UNL1        0.0389
     26 H           7.6671   -0.7500    0.0000 H       1  UNL1        0.0313
     27 H           5.6697   -2.2943    0.0000 H       1  UNL1        0.0268
     28 H           6.4668   -2.2943    0.0000 H       1  UNL1        0.0268
     29 H           4.7129    0.6851    0.0000 H       1  UNL1        0.0300
     30 H           3.9147    0.6943    0.0000 H       1  UNL1        0.0300
     31 H           7.1463   -1.9020    0.0000 H       1  UNL1        0.0268
     32 H           7.5449   -1.2117    0.0000 H       1  UNL1        0.0268
     33 H           8.3842    0.4923    0.0000 H       1  UNL1        0.0349
     34 H           5.8222    0.6807    0.0000 H       1  UNL1        0.0235
     35 H           5.2022    1.3007    0.0000 H       1  UNL1        0.0235
     36 H           4.5822    0.6807    0.0000 H       1  UNL1        0.0235
     37 H           2.8647   -0.6075    0.0000 H       1  UNL1        0.0673
     38 H           3.2778   -2.4220    0.0000 H       1  UNL1        0.0239
     39 H           3.5146   -3.2662    0.0000 H       1  UNL1        0.0239
     40 H           4.3588   -3.0295    0.0000 H       1  UNL1        0.0239
     41 H           4.2850   -3.0304    0.0000 H       1  UNL1        0.0239
     42 H           5.1344   -3.2475    0.0000 H       1  UNL1        0.0239
     43 H           5.3516   -2.3980    0.0000 H       1  UNL1        0.0239
     44 H           6.9478    2.3699    0.0000 H       1  UNL1        0.0655
     45 H           8.3883   -0.8558    0.0000 H       1  UNL1        0.0236
     46 H           9.2378   -0.6387    0.0000 H       1  UNL1        0.0236
     47 H           9.0206    0.2108    0.0000 H       1  UNL1        0.0236
     48 H           2.0000   -0.1031    0.0000 H       1  UNL1        0.2104
     49 H           9.2560    1.4137    0.0000 H       1  UNL1        0.0615
     50 H           9.2622    3.0337    0.0000 H       1  UNL1        0.0535
     51 H           8.1884    3.0378    0.0000 H       1  UNL1        0.0535
@<TRIPOS>BOND
     1    14     1    1
     2     1    48    1
     3     2    15    2
     4     3    16    2
     5     4     5    1
     6     4     6    1
     7     4    10    1
     8     4    13    1
     9     5     8    1
    10     5     9    1
    11     5    24    1
    12     6     7    1
    13     6    16    1
    14     6    25    1
    15     7    11    1
    16     7    12    1
    17     7    26    1
    18     8    15    1
    19     8    17    1
    20     8    18    1
    21     9    11    1
    22     9    27    1
    23     9    28    1
    24    10    14    1
    25    10    29    1
    26    10    30    1
    27    11    31    1
    28    11    32    1
    29    12    19    1
    30    12    21    1
    31    12    33    1
    32    13    34    1
    33    13    35    1
    34    13    36    1
    35    14    15    1
    36    14    37    1
    37    16    20    1
    38    17    38    1
    39    17    39    1
    40    17    40    1
    41    18    41    1
    42    18    42    1
    43    18    43    1
    44    19    20    2
    45    19    22    1
    46    20    44    1
    47    21    45    1
    48    21    46    1
    49    21    47    1
    50    22    23    2
    51    22    49    1
    52    23    50    1
    53    23    51    1
