@<TRIPOS>MOLECULE
IMPHY010448
 152 156 0 0 0
SMALL
GASTEIGER

@<TRIPOS>ATOM
      1 O          18.4545   -2.8749    0.0000 O.3     1  UNL1       -0.3451
      2 O          16.7224   -2.8749    0.0000 O.3     1  UNL1       -0.3394
      3 O          18.4545   -4.8749    0.0000 O.3     1  UNL1       -0.3841
      4 O          16.7224   -5.8749    0.0000 O.3     1  UNL1       -0.3864
      5 O          14.9904   -4.8749    0.0000 O.3     1  UNL1       -0.3864
      6 O          14.1244   -3.3749    0.0000 O.3     1  UNL1       -0.4619
      7 O          13.2583   -1.8749    0.0000 O.2     1  UNL1       -0.2509
      8 C          18.4837    3.3220    0.0000 C.3     1  UNL1       -0.0259
      9 C          19.3517    2.8253    0.0000 C.3     1  UNL1       -0.0320
     10 C          19.3555    1.8253    0.0000 C.3     1  UNL1       -0.0307
     11 C          18.4915    1.3220    0.0000 C.3     1  UNL1       -0.0285
     12 C          18.6892    4.2946    0.0000 C.3     1  UNL1       -0.0328
     13 C          17.6197    2.8186    0.0000 C.3     1  UNL1       -0.0468
     14 C          18.4794    0.2804    0.0000 C.3     1  UNL1       -0.0078
     15 C          20.0861    3.4952    0.0000 C.3     1  UNL1       -0.0492
     16 C          17.6235    1.8186    0.0000 C.3     1  UNL1       -0.0486
     17 C          19.6775    4.4015    0.0000 C.3     1  UNL1       -0.0492
     18 C          20.2675    1.3220    0.0000 C.3     1  UNL1       -0.0311
     19 C          18.0185    5.0363    0.0000 C.3     1  UNL1       -0.0405
     20 C          17.6158    3.8186    0.0000 C.3     1  UNL1       -0.0590
     21 C          19.3795   -0.2439    0.0000 C.2     1  UNL1       -0.0648
     22 C          17.5295   -0.2439    0.0000 C.3     1  UNL1       -0.0413
     23 C          20.2795    0.2804    0.0000 C.2     1  UNL1       -0.0839
     24 C          17.6153    0.7838    0.0000 C.3     1  UNL1       -0.0556
     25 C          19.3920   -1.3288    0.0000 C.3     1  UNL1       -0.0047
     26 C          17.5169   -1.3288    0.0000 C.3     1  UNL1       -0.0254
     27 C          18.3255    5.9880    0.0000 C.3     1  UNL1       -0.0499
     28 C          18.4545   -1.8749    0.0000 C.3     1  UNL1        0.0655
     29 C          17.0408    4.8263    0.0000 C.3     1  UNL1       -0.0621
     30 C          17.6548    6.7298    0.0000 C.3     1  UNL1       -0.0497
     31 C          17.9618    7.6815    0.0000 C.3     1  UNL1       -0.0389
     32 C          17.5885   -3.3749    0.0000 C.3     1  UNL1        0.1883
     33 C          17.2911    8.4232    0.0000 C.3     1  UNL1       -0.0439
     34 C          18.9395    7.8914    0.0000 C.3     1  UNL1       -0.0528
     35 C          17.5885   -4.3749    0.0000 C.3     1  UNL1        0.1341
     36 C          17.5981    9.3749    0.0000 C.3     1  UNL1       -0.0624
     37 C          16.3134    8.2132    0.0000 C.3     1  UNL1       -0.0624
     38 C          19.2465    8.8432    0.0000 C.3     1  UNL1       -0.0650
     39 C          16.7224   -4.8749    0.0000 C.3     1  UNL1        0.1141
     40 C          15.8564   -3.3749    0.0000 C.3     1  UNL1        0.1240
     41 C          15.8564   -4.3749    0.0000 C.3     1  UNL1        0.1129
     42 C          14.9904   -2.8749    0.0000 C.3     1  UNL1        0.1211
     43 C          13.2583   -2.8749    0.0000 C.2     1  UNL1        0.3072
     44 C          12.3923   -3.3749    0.0000 C.3     1  UNL1        0.0449
     45 C          11.5263   -2.8749    0.0000 C.3     1  UNL1       -0.0430
     46 C          10.6603   -3.3749    0.0000 C.3     1  UNL1       -0.0526
     47 C           9.7942   -2.8749    0.0000 C.3     1  UNL1       -0.0530
     48 C           8.9282   -3.3749    0.0000 C.3     1  UNL1       -0.0528
     49 C           8.0622   -2.8749    0.0000 C.3     1  UNL1       -0.0496
     50 C           7.1962   -3.3749    0.0000 C.3     1  UNL1       -0.0348
     51 C           6.3301   -2.8749    0.0000 C.2     1  UNL1       -0.0879
     52 C           5.4641   -3.3749    0.0000 C.2     1  UNL1       -0.0879
     53 C           5.4641   -4.3749    0.0000 C.3     1  UNL1       -0.0348
     54 C           4.5981   -4.8749    0.0000 C.3     1  UNL1       -0.0496
     55 C           4.5981   -5.8749    0.0000 C.3     1  UNL1       -0.0528
     56 C           3.7320   -6.3749    0.0000 C.3     1  UNL1       -0.0530
     57 C           3.7320   -7.3749    0.0000 C.3     1  UNL1       -0.0531
     58 C           2.8660   -7.8749    0.0000 C.3     1  UNL1       -0.0533
     59 C           2.8660   -8.8749    0.0000 C.3     1  UNL1       -0.0559
     60 C           2.0000   -9.3749    0.0000 C.3     1  UNL1       -0.0653
     61 H          20.1300    2.4836    0.0000 H       1  UNL1        0.0309
     62 H          20.0867    2.2588    0.0000 H       1  UNL1        0.0309
     63 H          19.2259    0.8942    0.0000 H       1  UNL1        0.0312
     64 H          18.9918    5.0889    0.0000 H       1  UNL1        0.0309
     65 H          17.4054    3.4004    0.0000 H       1  UNL1        0.0271
     66 H          17.0095    2.7086    0.0000 H       1  UNL1        0.0271
     67 H          20.4535    2.9958    0.0000 H       1  UNL1        0.0268
     68 H          20.6214    3.8081    0.0000 H       1  UNL1        0.0268
     69 H          17.0125    1.9240    0.0000 H       1  UNL1        0.0268
     70 H          17.4137    1.2352    0.0000 H       1  UNL1        0.0268
     71 H          20.2664    4.5955    0.0000 H       1  UNL1        0.0268
     72 H          19.5465    5.0075    0.0000 H       1  UNL1        0.0268
     73 H          20.8795    1.2230    0.0000 H       1  UNL1        0.0310
     74 H          20.4698    1.9081    0.0000 H       1  UNL1        0.0310
     75 H          17.8282    4.4463    0.0000 H       1  UNL1        0.0301
     76 H          17.9237    4.3568    0.0000 H       1  UNL1        0.0235
     77 H          17.0777    4.1266    0.0000 H       1  UNL1        0.0235
     78 H          17.3079    3.2805    0.0000 H       1  UNL1        0.0235
     79 H          17.3272    0.3422    0.0000 H       1  UNL1        0.0274
     80 H          16.9175   -0.3429    0.0000 H       1  UNL1        0.0274
     81 H          20.8188   -0.0254    0.0000 H       1  UNL1        0.0572
     82 H          17.9274    1.3195    0.0000 H       1  UNL1        0.0238
     83 H          17.0796    1.0958    0.0000 H       1  UNL1        0.0238
     84 H          17.3032    0.2480    0.0000 H       1  UNL1        0.0238
     85 H          19.6078   -1.9100    0.0000 H       1  UNL1        0.0335
     86 H          20.0016   -1.2156    0.0000 H       1  UNL1        0.0335
     87 H          16.9074   -1.2156    0.0000 H       1  UNL1        0.0290
     88 H          17.3012   -1.9100    0.0000 H       1  UNL1        0.0290
     89 H          18.8735    5.6981    0.0000 H       1  UNL1        0.0268
     90 H          18.7062    6.4774    0.0000 H       1  UNL1        0.0268
     91 H          18.9920   -2.1839    0.0000 H       1  UNL1        0.0600
     92 H          16.9106    5.4325    0.0000 H       1  UNL1        0.0233
     93 H          16.4346    4.6961    0.0000 H       1  UNL1        0.0233
     94 H          17.1710    4.2202    0.0000 H       1  UNL1        0.0233
     95 H          17.1067    7.0197    0.0000 H       1  UNL1        0.0268
     96 H          17.2741    6.2404    0.0000 H       1  UNL1        0.0268
     97 H          18.3776    7.2216    0.0000 H       1  UNL1        0.0303
     98 H          17.5885   -2.7549    0.0000 H       1  UNL1        0.0938
     99 H          17.8972    8.5534    0.0000 H       1  UNL1        0.0298
    100 H          18.9624    7.2719    0.0000 H       1  UNL1        0.0265
    101 H          19.5536    7.8065    0.0000 H       1  UNL1        0.0265
    102 H          17.5885   -4.9949    0.0000 H       1  UNL1        0.0671
    103 H          18.1881    9.1846    0.0000 H       1  UNL1        0.0232
    104 H          17.7884    9.9650    0.0000 H       1  UNL1        0.0232
    105 H          17.0080    9.5652    0.0000 H       1  UNL1        0.0232
    106 H          16.1832    8.8194    0.0000 H       1  UNL1        0.0232
    107 H          15.7072    8.0830    0.0000 H       1  UNL1        0.0232
    108 H          16.4436    7.6070    0.0000 H       1  UNL1        0.0232
    109 H          19.8365    8.6528    0.0000 H       1  UNL1        0.0230
    110 H          19.4368    9.4332    0.0000 H       1  UNL1        0.0230
    111 H          18.6564    9.0335    0.0000 H       1  UNL1        0.0230
    112 H          16.1855   -5.1849    0.0000 H       1  UNL1        0.0648
    113 H          15.8564   -2.7549    0.0000 H       1  UNL1        0.0658
    114 H          15.3195   -4.0649    0.0000 H       1  UNL1        0.0647
    115 H          18.4545   -5.4949    0.0000 H       1  UNL1        0.2101
    116 H          15.3889   -2.4000    0.0000 H       1  UNL1        0.0724
    117 H          14.5919   -2.4000    0.0000 H       1  UNL1        0.0724
    118 H          16.1855   -6.1849    0.0000 H       1  UNL1        0.2100
    119 H          14.9904   -5.4949    0.0000 H       1  UNL1        0.2100
    120 H          11.9938   -3.8498    0.0000 H       1  UNL1        0.0377
    121 H          12.7908   -3.8498    0.0000 H       1  UNL1        0.0377
    122 H          11.9248   -2.4000    0.0000 H       1  UNL1        0.0270
    123 H          11.1278   -2.4000    0.0000 H       1  UNL1        0.0270
    124 H          10.2617   -3.8498    0.0000 H       1  UNL1        0.0265
    125 H          11.0588   -3.8498    0.0000 H       1  UNL1        0.0265
    126 H          10.1928   -2.4000    0.0000 H       1  UNL1        0.0265
    127 H           9.3957   -2.4000    0.0000 H       1  UNL1        0.0265
    128 H           8.5297   -3.8498    0.0000 H       1  UNL1        0.0265
    129 H           9.3267   -3.8498    0.0000 H       1  UNL1        0.0265
    130 H           8.4607   -2.4000    0.0000 H       1  UNL1        0.0268
    131 H           7.6636   -2.4000    0.0000 H       1  UNL1        0.0268
    132 H           6.7976   -3.8498    0.0000 H       1  UNL1        0.0307
    133 H           7.5947   -3.8498    0.0000 H       1  UNL1        0.0307
    134 H           6.3301   -2.2549    0.0000 H       1  UNL1        0.0569
    135 H           4.9272   -3.0649    0.0000 H       1  UNL1        0.0569
    136 H           5.6762   -4.9575    0.0000 H       1  UNL1        0.0307
    137 H           6.0747   -4.2672    0.0000 H       1  UNL1        0.0307
    138 H           4.3860   -4.2923    0.0000 H       1  UNL1        0.0268
    139 H           3.9875   -4.9826    0.0000 H       1  UNL1        0.0268
    140 H           4.8101   -6.4575    0.0000 H       1  UNL1        0.0265
    141 H           5.2087   -5.7672    0.0000 H       1  UNL1        0.0265
    142 H           3.5200   -5.7923    0.0000 H       1  UNL1        0.0265
    143 H           3.1215   -6.4826    0.0000 H       1  UNL1        0.0265
    144 H           3.9441   -7.9575    0.0000 H       1  UNL1        0.0265
    145 H           4.3426   -7.2672    0.0000 H       1  UNL1        0.0265
    146 H           2.6540   -7.2923    0.0000 H       1  UNL1        0.0265
    147 H           2.2554   -7.9826    0.0000 H       1  UNL1        0.0265
    148 H           3.0781   -9.4575    0.0000 H       1  UNL1        0.0263
    149 H           3.4766   -8.7672    0.0000 H       1  UNL1        0.0263
    150 H           1.6900   -8.8380    0.0000 H       1  UNL1        0.0230
    151 H           1.4631   -9.6849    0.0000 H       1  UNL1        0.0230
    152 H           2.3100   -9.9118    0.0000 H       1  UNL1        0.0230
@<TRIPOS>BOND
     1    28     1    1
     2    32     1    1
     3     2    32    1
     4     2    40    1
     5    35     3    1
     6     3   115    1
     7    39     4    1
     8     4   118    1
     9    41     5    1
    10     5   119    1
    11     6    42    1
    12     6    43    1
    13     7    43    2
    14     8     9    1
    15     8    12    1
    16     8    13    1
    17     8    20    1
    18     9    10    1
    19     9    15    1
    20     9    61    1
    21    10    11    1
    22    10    18    1
    23    10    62    1
    24    11    14    1
    25    11    16    1
    26    11    63    1
    27    12    17    1
    28    12    19    1
    29    12    64    1
    30    13    16    1
    31    13    65    1
    32    13    66    1
    33    14    21    1
    34    14    22    1
    35    14    24    1
    36    15    17    1
    37    15    67    1
    38    15    68    1
    39    16    69    1
    40    16    70    1
    41    17    71    1
    42    17    72    1
    43    18    23    1
    44    18    73    1
    45    18    74    1
    46    19    27    1
    47    19    29    1
    48    19    75    1
    49    20    76    1
    50    20    77    1
    51    20    78    1
    52    21    23    2
    53    21    25    1
    54    22    26    1
    55    22    79    1
    56    22    80    1
    57    23    81    1
    58    24    82    1
    59    24    83    1
    60    24    84    1
    61    25    28    1
    62    25    85    1
    63    25    86    1
    64    26    28    1
    65    26    87    1
    66    26    88    1
    67    27    30    1
    68    27    89    1
    69    27    90    1
    70    28    91    1
    71    29    92    1
    72    29    93    1
    73    29    94    1
    74    31    30    1
    75    30    95    1
    76    30    96    1
    77    31    33    1
    78    31    34    1
    79    31    97    1
    80    32    35    1
    81    32    98    1
    82    33    36    1
    83    33    37    1
    84    33    99    1
    85    34    38    1
    86    34   100    1
    87    34   101    1
    88    35    39    1
    89    35   102    1
    90    36   103    1
    91    36   104    1
    92    36   105    1
    93    37   106    1
    94    37   107    1
    95    37   108    1
    96    38   109    1
    97    38   110    1
    98    38   111    1
    99    39    41    1
   100    39   112    1
   101    40    41    1
   102    40    42    1
   103    40   113    1
   104    41   114    1
   105    42   116    1
   106    42   117    1
   107    43    44    1
   108    44    45    1
   109    44   120    1
   110    44   121    1
   111    45    46    1
   112    45   122    1
   113    45   123    1
   114    46    47    1
   115    46   124    1
   116    46   125    1
   117    47    48    1
   118    47   126    1
   119    47   127    1
   120    48    49    1
   121    48   128    1
   122    48   129    1
   123    49    50    1
   124    49   130    1
   125    49   131    1
   126    50    51    1
   127    50   132    1
   128    50   133    1
   129    51    52    2
   130    51   134    1
   131    52    53    1
   132    52   135    1
   133    53    54    1
   134    53   136    1
   135    53   137    1
   136    54    55    1
   137    54   138    1
   138    54   139    1
   139    55    56    1
   140    55   140    1
   141    55   141    1
   142    56    57    1
   143    56   142    1
   144    56   143    1
   145    57    58    1
   146    57   144    1
   147    57   145    1
   148    58    59    1
   149    58   146    1
   150    58   147    1
   151    59    60    1
   152    59   148    1
   153    59   149    1
   154    60   150    1
   155    60   151    1
   156    60   152    1
