@<TRIPOS>MOLECULE
IMPHY006082
 55 58 0 0 0
SMALL
GASTEIGER

@<TRIPOS>ATOM
      1 O          12.4803    1.9147    0.0000 O.3     1  UNL1       -0.4815
      2 O           8.0901   -1.6889    0.0000 O.2     1  UNL1       -0.4618
      3 O          10.7321   -1.1267    0.0000 O.3     1  UNL1       -0.5054
      4 O           6.3301    1.3458    0.0000 O.3     1  UNL1       -0.5055
      5 O           8.0785    1.3804    0.0000 O.2     1  UNL1       -0.2863
      6 O           4.5981   -1.6542    0.0000 O.3     1  UNL1       -0.5062
      7 C          13.3884    1.4044    0.0000 C.3     1  UNL1        0.1235
      8 C          11.5923    0.3766    0.0000 C.ar    1  UNL1        0.0585
      9 C          11.5884    1.3766    0.0000 C.ar    1  UNL1        0.1324
     10 C          13.3924    0.3627    0.0000 C.2     1  UNL1       -0.0408
     11 C           9.8602    0.3699    0.0000 C.ar    1  UNL1        0.0310
     12 C          14.3883    1.4121    0.0000 C.3     1  UNL1       -0.0215
     13 C          13.8817    2.2742    0.0000 C.3     1  UNL1       -0.0215
     14 C          12.4883   -0.1546    0.0000 C.2     1  UNL1       -0.0478
     15 C          10.7282   -0.1267    0.0000 C.ar    1  UNL1        0.1353
     16 C           8.9962   -0.1334    0.0000 C.ar    1  UNL1        0.0679
     17 C           7.1962   -0.1542    0.0000 C.ar    1  UNL1        0.1063
     18 C          10.7205    1.8733    0.0000 C.ar    1  UNL1       -0.0185
     19 C           9.8564    1.3699    0.0000 C.ar    1  UNL1       -0.0468
     20 C           8.0901    0.3804    0.0000 C.ar    1  UNL1        0.2038
     21 C           5.4641   -0.1542    0.0000 C.ar    1  UNL1        0.0400
     22 C           7.1962   -1.1542    0.0000 C.ar    1  UNL1        0.1454
     23 C           6.3301    0.3458    0.0000 C.ar    1  UNL1        0.1381
     24 C           4.5981    0.3458    0.0000 C.3     1  UNL1       -0.0023
     25 C           8.9962   -1.1750    0.0000 C.ar    1  UNL1        0.1040
     26 C           5.4641   -1.1542    0.0000 C.ar    1  UNL1        0.1273
     27 C           6.3301   -1.6542    0.0000 C.ar    1  UNL1        0.0234
     28 C           3.7320   -0.1542    0.0000 C.2     1  UNL1       -0.0807
     29 C           2.8660    0.3458    0.0000 C.2     1  UNL1       -0.0793
     30 C           2.0000   -0.1542    0.0000 C.3     1  UNL1       -0.0440
     31 C           2.8660    1.3458    0.0000 C.3     1  UNL1       -0.0440
     32 H          13.9293    0.0527    0.0000 H       1  UNL1        0.0611
     33 H          14.4210    1.9684    0.0000 H       1  UNL1        0.0271
     34 H          14.1875    2.8135    0.0000 H       1  UNL1        0.0271
     35 H          13.3424    2.5801    0.0000 H       1  UNL1        0.0271
     36 H          14.3931    0.7921    0.0000 H       1  UNL1        0.0271
     37 H          15.0083    1.4168    0.0000 H       1  UNL1        0.0271
     38 H          14.3835    2.0320    0.0000 H       1  UNL1        0.0271
     39 H          12.4835   -0.7746    0.0000 H       1  UNL1        0.0624
     40 H          10.7181    2.4933    0.0000 H       1  UNL1        0.0654
     41 H           9.3183    1.6779    0.0000 H       1  UNL1        0.0626
     42 H           4.9966    0.8207    0.0000 H       1  UNL1        0.0358
     43 H           4.1996    0.8207    0.0000 H       1  UNL1        0.0358
     44 H           9.5319   -1.4871    0.0000 H       1  UNL1        0.1037
     45 H           6.3301   -2.2742    0.0000 H       1  UNL1        0.0691
     46 H           3.7320   -0.7742    0.0000 H       1  UNL1        0.0575
     47 H          11.2702   -1.4346    0.0000 H       1  UNL1        0.2922
     48 H           5.7932    1.6558    0.0000 H       1  UNL1        0.2922
     49 H           4.5981   -2.2742    0.0000 H       1  UNL1        0.2921
     50 H           1.6900    0.3827    0.0000 H       1  UNL1        0.0274
     51 H           1.4631   -0.4642    0.0000 H       1  UNL1        0.0274
     52 H           2.3100   -0.6911    0.0000 H       1  UNL1        0.0274
     53 H           3.4860    1.3458    0.0000 H       1  UNL1        0.0274
     54 H           2.8660    1.9658    0.0000 H       1  UNL1        0.0274
     55 H           2.2460    1.3458    0.0000 H       1  UNL1        0.0274
@<TRIPOS>BOND
     1     1     7    1
     2     1     9    1
     3     2    22   ar
     4     2    25   ar
     5     3    15    1
     6     3    47    1
     7     4    23    1
     8     4    48    1
     9     5    20    2
    10     6    26    1
    11     6    49    1
    12     7    10    1
    13     7    12    1
    14     7    13    1
    15     8     9   ar
    16     8    14    1
    17     8    15   ar
    18     9    18   ar
    19    10    14    2
    20    10    32    1
    21    11    15   ar
    22    11    16    1
    23    11    19   ar
    24    12    36    1
    25    12    37    1
    26    12    38    1
    27    13    33    1
    28    13    34    1
    29    13    35    1
    30    14    39    1
    31    16    20   ar
    32    16    25   ar
    33    17    20   ar
    34    17    22   ar
    35    17    23   ar
    36    18    19   ar
    37    18    40    1
    38    19    41    1
    39    21    23   ar
    40    21    24    1
    41    21    26   ar
    42    22    27   ar
    43    24    28    1
    44    24    42    1
    45    24    43    1
    46    25    44    1
    47    26    27   ar
    48    27    45    1
    49    28    29    2
    50    28    46    1
    51    29    30    1
    52    29    31    1
    53    30    50    1
    54    30    51    1
    55    30    52    1
    56    31    53    1
    57    31    54    1
    58    31    55    1
