@<TRIPOS>MOLECULE
IMPHY014026
 21 14 0 0 0
SMALL
GASTEIGER

@<TRIPOS>ATOM
      1 CR          5.6720    2.0000    0.0000 Cr.oh   1  UNL1        0.0000
      2 S           6.5380    2.5000    0.0000 S.3     2  UNL2       -1.0000
      3 S           4.8059    2.5000    0.0000 S.3     3  UNL3       -1.0000
      4 S           5.6720    1.0000    0.0000 S.3     4  UNL4       -1.0000
      5 S           6.5380    5.5000    0.0000 S.3     5  UNL5       -1.0000
      6 N           0.5369    4.3700    0.0000 N.3     2  UNL2        0.0000
      7 N           5.6720    8.1200    0.0000 N.3     3  UNL3        0.0000
      8 N           8.2700    1.5000    0.0000 N.1     2  UNL2        0.0000
      9 N           3.0739    1.5000    0.0000 N.1     3  UNL3        0.0000
     10 N           3.9399    0.0000    0.0000 N.1     4  UNL4        0.0000
     11 N           4.8059    4.5000    0.0000 N.1     5  UNL5        0.0000
     12 C           7.4040    2.0000    0.0000 C.1     2  UNL2        0.0000
     13 C           3.9399    2.0000    0.0000 C.1     3  UNL3        0.0000
     14 C           4.8059    0.5000    0.0000 C.1     4  UNL4        0.0000
     15 C           5.6720    5.0000    0.0000 C.1     5  UNL5        0.0000
     16 H           1.0739    4.6800    0.0000 H       6  UNL6        0.0000
     17 H           0.0000    4.6800    0.0000 H       6  UNL6        0.0000
     18 H           0.5369    3.7500    0.0000 H       6  UNL6        0.0000
     19 H           6.2089    8.4300    0.0000 H       7  UNL7        0.0000
     20 H           5.1350    8.4300    0.0000 H       7  UNL7        0.0000
     21 H           5.6720    7.5000    0.0000 H       7  UNL7        0.0000
@<TRIPOS>UNITY_ATOM_ATTR
1 1
charge 3
2 1
charge -1
3 1
charge -1
4 1
charge -1
5 1
charge -1
@<TRIPOS>BOND
     1     2    12    1
     2     3    13    1
     3     4    14    1
     4     5    15    1
     5     6    16    1
     6     6    17    1
     7     6    18    1
     8     7    19    1
     9     7    20    1
    10     7    21    1
    11     8    12    3
    12     9    13    3
    13    10    14    3
    14    11    15    3
