@<TRIPOS>MOLECULE
IMPHY000678
 53 53 0 0 0
SMALL
GASTEIGER

@<TRIPOS>ATOM
      1 O           2.5369   -3.6900    0.0000 O.2     1  UNL1       -0.5029
      2 O           6.0010   -3.6900    0.0000 O.2     1  UNL1       -0.2836
      3 O           6.0010   -5.6900    0.0000 O.2     1  UNL1       -0.5031
      4 O           2.5369   -5.6900    0.0000 O.2     1  UNL1       -0.2839
      5 C           6.8671    0.8100    0.0000 C.3     1  UNL1       -0.0531
      6 C           6.8671    1.8100    0.0000 C.3     1  UNL1       -0.0531
      7 C           6.0010    0.3100    0.0000 C.3     1  UNL1       -0.0531
      8 C           7.7331    2.3100    0.0000 C.3     1  UNL1       -0.0531
      9 C           6.0010   -0.6900    0.0000 C.3     1  UNL1       -0.0530
     10 C           7.7331    3.3100    0.0000 C.3     1  UNL1       -0.0531
     11 C           5.1350   -1.1900    0.0000 C.3     1  UNL1       -0.0528
     12 C           8.5991    3.8100    0.0000 C.3     1  UNL1       -0.0531
     13 C           5.1350   -2.1900    0.0000 C.3     1  UNL1       -0.0488
     14 C           8.5991    4.8100    0.0000 C.3     1  UNL1       -0.0533
     15 C           4.2690   -2.6900    0.0000 C.3     1  UNL1       -0.0203
     16 C           9.4651    5.3100    0.0000 C.3     1  UNL1       -0.0559
     17 C           4.2690   -3.6900    0.0000 C.2     1  UNL1        0.0481
     18 C           9.4651    6.3100    0.0000 C.3     1  UNL1       -0.0653
     19 C           3.4030   -4.1900    0.0000 C.2     1  UNL1        0.1707
     20 C           5.1350   -4.1900    0.0000 C.2     1  UNL1        0.2269
     21 C           5.1350   -5.1900    0.0000 C.2     1  UNL1        0.1677
     22 C           3.4030   -5.1900    0.0000 C.2     1  UNL1        0.2240
     23 C           4.2690   -5.6900    0.0000 C.2     1  UNL1        0.0341
     24 H           7.0791    0.2274    0.0000 H       1  UNL1        0.0265
     25 H           7.4776    0.9177    0.0000 H       1  UNL1        0.0265
     26 H           6.6550    2.3926    0.0000 H       1  UNL1        0.0265
     27 H           6.2565    1.7023    0.0000 H       1  UNL1        0.0265
     28 H           5.7890    0.8926    0.0000 H       1  UNL1        0.0265
     29 H           5.3905    0.2023    0.0000 H       1  UNL1        0.0265
     30 H           7.9451    1.7274    0.0000 H       1  UNL1        0.0265
     31 H           8.3437    2.4177    0.0000 H       1  UNL1        0.0265
     32 H           6.2131   -1.2726    0.0000 H       1  UNL1        0.0265
     33 H           6.6116   -0.5823    0.0000 H       1  UNL1        0.0265
     34 H           7.5210    3.8926    0.0000 H       1  UNL1        0.0265
     35 H           7.1225    3.2023    0.0000 H       1  UNL1        0.0265
     36 H           4.9230   -0.6074    0.0000 H       1  UNL1        0.0265
     37 H           4.5244   -1.2977    0.0000 H       1  UNL1        0.0265
     38 H           8.8112    3.2274    0.0000 H       1  UNL1        0.0265
     39 H           9.2097    3.9177    0.0000 H       1  UNL1        0.0265
     40 H           5.3471   -2.7726    0.0000 H       1  UNL1        0.0268
     41 H           5.7456   -2.0823    0.0000 H       1  UNL1        0.0268
     42 H           8.3871    5.3926    0.0000 H       1  UNL1        0.0265
     43 H           7.9885    4.7023    0.0000 H       1  UNL1        0.0265
     44 H           4.0569   -2.1074    0.0000 H       1  UNL1        0.0316
     45 H           3.6584   -2.7977    0.0000 H       1  UNL1        0.0316
     46 H           9.6772    4.7274    0.0000 H       1  UNL1        0.0263
     47 H          10.0757    5.4177    0.0000 H       1  UNL1        0.0263
     48 H          10.0851    6.3100    0.0000 H       1  UNL1        0.0230
     49 H           9.4651    6.9300    0.0000 H       1  UNL1        0.0230
     50 H           8.8451    6.3100    0.0000 H       1  UNL1        0.0230
     51 H           4.2690   -6.3100    0.0000 H       1  UNL1        0.0695
     52 H           2.0000   -4.0000    0.0000 H       1  UNL1        0.2923
     53 H           6.0010   -6.3100    0.0000 H       1  UNL1        0.2923
@<TRIPOS>BOND
     1     1    19    1
     2     1    52    1
     3     2    20    2
     4     3    21    1
     5     3    53    1
     6     4    22    2
     7     5     6    1
     8     5     7    1
     9     5    24    1
    10     5    25    1
    11     6     8    1
    12     6    26    1
    13     6    27    1
    14     7     9    1
    15     7    28    1
    16     7    29    1
    17     8    10    1
    18     8    30    1
    19     8    31    1
    20     9    11    1
    21     9    32    1
    22     9    33    1
    23    10    12    1
    24    10    34    1
    25    10    35    1
    26    11    13    1
    27    11    36    1
    28    11    37    1
    29    12    14    1
    30    12    38    1
    31    12    39    1
    32    13    15    1
    33    13    40    1
    34    13    41    1
    35    14    16    1
    36    14    42    1
    37    14    43    1
    38    15    17    1
    39    15    44    1
    40    15    45    1
    41    16    18    1
    42    16    46    1
    43    16    47    1
    44    17    19    2
    45    17    20    1
    46    18    48    1
    47    18    49    1
    48    18    50    1
    49    19    22    1
    50    20    21    1
    51    21    23    2
    52    22    23    1
    53    23    51    1
