@<TRIPOS>MOLECULE
IMPHY011232
 47 51 0 0 0
SMALL
GASTEIGER

@<TRIPOS>ATOM
      1 O           7.7199   -1.5675    0.0000 O.3     1  UNL1       -0.4608
      2 O           5.3540    2.2801    0.0000 O.3     1  UNL1       -0.4562
      3 O           3.5840   -2.8342    0.0000 O.3     1  UNL1       -0.3918
      4 O           7.7013   -3.3250    0.0000 O.2     1  UNL1       -0.2505
      5 O           7.1238    2.2423    0.0000 O.2     1  UNL1       -0.2505
      6 O           2.0000    2.5863    0.0000 O.2     1  UNL1       -0.4706
      7 C           5.3699   -0.7891    0.0000 C.3     1  UNL1       -0.0255
      8 C           5.3699    0.2109    0.0000 C.3     1  UNL1       -0.0121
      9 C           6.2360   -1.2891    0.0000 C.3     1  UNL1        0.0126
     10 C           6.2360    0.7109    0.0000 C.3     1  UNL1        0.0655
     11 C           7.1020   -0.7891    0.0000 C.3     1  UNL1        0.1077
     12 C           6.2520   -2.3306    0.0000 C.3     1  UNL1        0.0652
     13 C           7.1020    0.2109    0.0000 C.3     1  UNL1       -0.0019
     14 C           4.4599   -1.2960    0.0000 C.3     1  UNL1       -0.0231
     15 C           4.4599    0.7177    0.0000 C.3     1  UNL1       -0.0049
     16 C           5.3540   -2.8584    0.0000 C.3     1  UNL1       -0.0135
     17 C           4.4519   -2.3376    0.0000 C.3     1  UNL1        0.0563
     18 C           4.5039   -0.2891    0.0000 C.3     1  UNL1       -0.0584
     19 C           7.2400   -2.4378    0.0000 C.2     1  UNL1        0.3110
     20 C           4.4519    1.7593    0.0000 C.3     1  UNL1        0.1315
     21 C           6.2520    1.7524    0.0000 C.2     1  UNL1        0.3114
     22 C           3.5840    2.2560    0.0000 C.ar    1  UNL1        0.0304
     23 C           3.4756    3.2501    0.0000 C.ar    1  UNL1       -0.0172
     24 C           2.6720    1.8457    0.0000 C.ar    1  UNL1        0.0983
     25 C           2.4967    3.4542    0.0000 C.ar    1  UNL1        0.0921
     26 H           6.1061   -0.3641    0.0000 H       1  UNL1        0.0311
     27 H           5.4998   -1.7141    0.0000 H       1  UNL1        0.0347
     28 H           6.9753    1.1302    0.0000 H       1  UNL1        0.0420
     29 H           7.9046   -0.5093    0.0000 H       1  UNL1        0.0737
     30 H           6.4306   -3.1617    0.0000 H       1  UNL1        0.0418
     31 H           7.7126    0.1032    0.0000 H       1  UNL1        0.0309
     32 H           7.3140    0.7935    0.0000 H       1  UNL1        0.0309
     33 H           4.2554   -0.7107    0.0000 H       1  UNL1        0.0293
     34 H           3.8483   -1.3974    0.0000 H       1  UNL1        0.0293
     35 H           3.8483    0.8191    0.0000 H       1  UNL1        0.0310
     36 H           4.2554    0.1324    0.0000 H       1  UNL1        0.0310
     37 H           4.9567   -3.3344    0.0000 H       1  UNL1        0.0298
     38 H           5.7550   -3.3313    0.0000 H       1  UNL1        0.0298
     39 H           4.4507   -2.9576    0.0000 H       1  UNL1        0.0593
     40 H           4.1939    0.2478    0.0000 H       1  UNL1        0.0235
     41 H           3.9670   -0.5991    0.0000 H       1  UNL1        0.0235
     42 H           4.8139   -0.8261    0.0000 H       1  UNL1        0.0235
     43 H           4.4507    2.3793    0.0000 H       1  UNL1        0.0786
     44 H           3.5816   -3.4542    0.0000 H       1  UNL1        0.2098
     45 H           3.9348    3.6667    0.0000 H       1  UNL1        0.0653
     46 H           2.5454    1.2388    0.0000 H       1  UNL1        0.1033
     47 H           2.2423    4.0197    0.0000 H       1  UNL1        0.1029
@<TRIPOS>BOND
     1     1    11    1
     2     1    19    1
     3     2    20    1
     4     2    21    1
     5    17     3    1
     6     3    44    1
     7     4    19    2
     8     5    21    2
     9     6    24   ar
    10     6    25   ar
    11     7     8    1
    12     7     9    1
    13     7    14    1
    14     7    26    1
    15     8    10    1
    16     8    15    1
    17     8    18    1
    18     9    11    1
    19     9    12    1
    20     9    27    1
    21    10    13    1
    22    10    21    1
    23    10    28    1
    24    11    13    1
    25    11    29    1
    26    12    16    1
    27    12    19    1
    28    12    30    1
    29    13    31    1
    30    13    32    1
    31    14    17    1
    32    14    33    1
    33    14    34    1
    34    15    20    1
    35    15    35    1
    36    15    36    1
    37    16    17    1
    38    16    37    1
    39    16    38    1
    40    17    39    1
    41    18    40    1
    42    18    41    1
    43    18    42    1
    44    20    22    1
    45    20    43    1
    46    22    23   ar
    47    22    24   ar
    48    23    25   ar
    49    23    45    1
    50    24    46    1
    51    25    47    1
