@<TRIPOS>MOLECULE
IMPHY004954
 102 107 0 0 0
SMALL
GASTEIGER

@<TRIPOS>ATOM
      1 O           5.4564   -2.6896    0.0000 O.3     1  UNL1       -0.4551
      2 O           5.4725   -0.5980    0.0000 O.3     1  UNL1       -0.3881
      3 O          14.3815    0.3969    0.0000 O.3     1  UNL1       -0.4802
      4 O          13.5270   -1.1097    0.0000 O.2     1  UNL1       -0.2504
      5 O           4.5961   -1.1862    0.0000 O.2     1  UNL1       -0.2456
      6 O           2.8757    1.8204    0.0000 O.3     1  UNL1       -0.5068
      7 C          10.8495   -0.6372    0.0000 C.3     1  UNL1       -0.0207
      8 C           9.9834   -1.1372    0.0000 C.3     1  UNL1       -0.0228
      9 C          10.8495    0.3628    0.0000 C.3     1  UNL1       -0.0218
     10 C           9.1174   -0.6372    0.0000 C.3     1  UNL1       -0.0293
     11 C          11.7434    0.8974    0.0000 C.3     1  UNL1       -0.0129
     12 C           8.2074   -1.1441    0.0000 C.3     1  UNL1       -0.0228
     13 C          12.6495    0.3836    0.0000 C.3     1  UNL1        0.0715
     14 C           9.9834    0.8628    0.0000 C.3     1  UNL1       -0.0465
     15 C           8.1994   -2.1857    0.0000 C.3     1  UNL1       -0.0267
     16 C          11.7434   -1.1719    0.0000 C.3     1  UNL1       -0.0456
     17 C           9.1174    0.3628    0.0000 C.3     1  UNL1       -0.0487
     18 C           9.9995   -2.1788    0.0000 C.3     1  UNL1       -0.0466
     19 C          12.6495   -0.6581    0.0000 C.3     1  UNL1       -0.0364
     20 C           9.1014   -2.7065    0.0000 C.3     1  UNL1       -0.0486
     21 C          11.9535    1.9113    0.0000 C.3     1  UNL1       -0.0160
     22 C           7.2640   -2.7354    0.0000 C.3     1  UNL1        0.0080
     23 C          11.1916   -1.5769    0.0000 C.3     1  UNL1       -0.0585
     24 C           7.2806   -0.5800    0.0000 C.3     1  UNL1       -0.0174
     25 C          10.6262   -1.9033    0.0000 C.3     1  UNL1       -0.0588
     26 C          10.8495    1.3628    0.0000 C.3     1  UNL1       -0.0587
     27 C          13.4118    1.0843    0.0000 C.3     1  UNL1       -0.0364
     28 C          12.9825    2.0266    0.0000 C.3     1  UNL1       -0.0452
     29 C           8.2151   -0.1441    0.0000 C.3     1  UNL1       -0.0589
     30 C           6.3243   -2.1929    0.0000 C.3     1  UNL1        0.1344
     31 C           6.3327   -1.1080    0.0000 C.3     1  UNL1        0.0931
     32 C          13.5193   -0.1097    0.0000 C.2     1  UNL1        0.3112
     33 C          11.2799    2.6505    0.0000 C.2     1  UNL1       -0.0763
     34 C           6.7673   -3.6034    0.0000 C.3     1  UNL1       -0.0561
     35 C           7.7673   -3.5995    0.0000 C.3     1  UNL1       -0.0561
     36 C          11.5833    3.6034    0.0000 C.3     1  UNL1       -0.0438
     37 C          10.3030    2.4367    0.0000 C.2     1  UNL1       -0.0994
     38 C           4.5923   -2.1862    0.0000 C.2     1  UNL1        0.3323
     39 C           3.7243   -2.6829    0.0000 C.2     1  UNL1        0.0231
     40 C           2.8602   -2.1796    0.0000 C.2     1  UNL1       -0.0478
     41 C           2.8641   -1.1796    0.0000 C.ar    1  UNL1       -0.0246
     42 C           3.7320   -0.6829    0.0000 C.ar    1  UNL1       -0.0511
     43 C           2.0000   -0.6762    0.0000 C.ar    1  UNL1       -0.0511
     44 C           3.7359    0.3171    0.0000 C.ar    1  UNL1       -0.0196
     45 C           2.0038    0.3238    0.0000 C.ar    1  UNL1       -0.0196
     46 C           2.8718    0.8204    0.0000 C.ar    1  UNL1        0.1169
     47 H           9.8535   -0.2122    0.0000 H       1  UNL1        0.0312
     48 H          12.5177    1.2481    0.0000 H       1  UNL1        0.0323
     49 H          10.3820    1.3377    0.0000 H       1  UNL1        0.0271
     50 H           9.5849    1.3377    0.0000 H       1  UNL1        0.0271
     51 H           8.2026   -3.0357    0.0000 H       1  UNL1        0.0312
     52 H          11.3388   -1.6417    0.0000 H       1  UNL1        0.0271
     53 H          12.1370   -1.6509    0.0000 H       1  UNL1        0.0271
     54 H           8.9054    0.9454    0.0000 H       1  UNL1        0.0268
     55 H           8.5068    0.2551    0.0000 H       1  UNL1        0.0268
     56 H          10.2175   -2.7592    0.0000 H       1  UNL1        0.0271
     57 H          10.6086   -2.0632    0.0000 H       1  UNL1        0.0271
     58 H          12.8585   -1.2418    0.0000 H       1  UNL1        0.0276
     59 H          13.2603   -0.5520    0.0000 H       1  UNL1        0.0276
     60 H           8.7041   -3.1825    0.0000 H       1  UNL1        0.0268
     61 H           9.5024   -3.1794    0.0000 H       1  UNL1        0.0268
     62 H          11.1337    1.6868    0.0000 H       1  UNL1        0.0349
     63 H          10.6090   -1.7890    0.0000 H       1  UNL1        0.0235
     64 H          11.4037   -2.1595    0.0000 H       1  UNL1        0.0235
     65 H          11.7742   -1.3648    0.0000 H       1  UNL1        0.0235
     66 H           7.6888   -0.1134    0.0000 H       1  UNL1        0.0297
     67 H           6.8906   -0.0980    0.0000 H       1  UNL1        0.0297
     68 H          10.1513   -2.3018    0.0000 H       1  UNL1        0.0235
     69 H          11.0247   -2.3782    0.0000 H       1  UNL1        0.0235
     70 H          11.1012   -1.5048    0.0000 H       1  UNL1        0.0235
     71 H          11.4695    1.3628    0.0000 H       1  UNL1        0.0235
     72 H          10.8495    1.9828    0.0000 H       1  UNL1        0.0235
     73 H          10.2295    1.3628    0.0000 H       1  UNL1        0.0235
     74 H          13.7811    0.5863    0.0000 H       1  UNL1        0.0276
     75 H          13.9459    1.3992    0.0000 H       1  UNL1        0.0276
     76 H          13.5706    2.2229    0.0000 H       1  UNL1        0.0271
     77 H          12.8491    2.6321    0.0000 H       1  UNL1        0.0271
     78 H           8.8351   -0.1489    0.0000 H       1  UNL1        0.0235
     79 H           8.2199    0.4759    0.0000 H       1  UNL1        0.0235
     80 H           7.5951   -0.1393    0.0000 H       1  UNL1        0.0235
     81 H           5.5907   -1.7637    0.0000 H       1  UNL1        0.0766
     82 H           6.3441   -0.2580    0.0000 H       1  UNL1        0.0630
     83 H           6.2292   -3.2954    0.0000 H       1  UNL1        0.0236
     84 H           6.4594   -4.1415    0.0000 H       1  UNL1        0.0236
     85 H           7.3054   -3.9113    0.0000 H       1  UNL1        0.0236
     86 H           7.2315   -3.9116    0.0000 H       1  UNL1        0.0236
     87 H           8.0794   -4.1352    0.0000 H       1  UNL1        0.0236
     88 H           8.3030   -3.2874    0.0000 H       1  UNL1        0.0236
     89 H           5.4797    0.0220    0.0000 H       1  UNL1        0.2099
     90 H          12.1741    3.4153    0.0000 H       1  UNL1        0.0274
     91 H          11.7713    4.1941    0.0000 H       1  UNL1        0.0274
     92 H          10.9925    3.7914    0.0000 H       1  UNL1        0.0274
     93 H          14.9208    0.0911    0.0000 H       1  UNL1        0.2951
     94 H           9.8854    2.8950    0.0000 H       1  UNL1        0.0534
     95 H          10.1150    1.8459    0.0000 H       1  UNL1        0.0534
     96 H           3.7219   -3.3029    0.0000 H       1  UNL1        0.0689
     97 H           2.3221   -2.4875    0.0000 H       1  UNL1        0.0626
     98 H           4.2678   -0.9950    0.0000 H       1  UNL1        0.0625
     99 H           1.4619   -0.9842    0.0000 H       1  UNL1        0.0625
    100 H           4.2740    0.6250    0.0000 H       1  UNL1        0.0654
    101 H           1.4681    0.6358    0.0000 H       1  UNL1        0.0654
    102 H           2.3399    2.1325    0.0000 H       1  UNL1        0.2921
@<TRIPOS>BOND
     1     1    30    1
     2     1    38    1
     3     2    31    1
     4     2    89    1
     5     3    32    1
     6     3    93    1
     7     4    32    2
     8     5    38    2
     9     6    46    1
    10     6   102    1
    11     7     8    1
    12     7     9    1
    13     7    16    1
    14     7    23    1
    15     8    10    1
    16     8    18    1
    17     8    25    1
    18     9    11    1
    19     9    14    1
    20     9    26    1
    21    10    12    1
    22    10    17    1
    23    10    47    1
    24    11    13    1
    25    11    21    1
    26    11    48    1
    27    12    15    1
    28    12    24    1
    29    12    29    1
    30    13    19    1
    31    13    27    1
    32    13    32    1
    33    14    17    1
    34    14    49    1
    35    14    50    1
    36    15    20    1
    37    15    22    1
    38    15    51    1
    39    16    19    1
    40    16    52    1
    41    16    53    1
    42    17    54    1
    43    17    55    1
    44    18    20    1
    45    18    56    1
    46    18    57    1
    47    19    58    1
    48    19    59    1
    49    20    60    1
    50    20    61    1
    51    21    28    1
    52    21    33    1
    53    21    62    1
    54    22    30    1
    55    22    34    1
    56    22    35    1
    57    23    63    1
    58    23    64    1
    59    23    65    1
    60    24    31    1
    61    24    66    1
    62    24    67    1
    63    25    68    1
    64    25    69    1
    65    25    70    1
    66    26    71    1
    67    26    72    1
    68    26    73    1
    69    27    28    1
    70    27    74    1
    71    27    75    1
    72    28    76    1
    73    28    77    1
    74    29    78    1
    75    29    79    1
    76    29    80    1
    77    30    31    1
    78    30    81    1
    79    31    82    1
    80    33    36    1
    81    33    37    2
    82    34    83    1
    83    34    84    1
    84    34    85    1
    85    35    86    1
    86    35    87    1
    87    35    88    1
    88    36    90    1
    89    36    91    1
    90    36    92    1
    91    37    94    1
    92    37    95    1
    93    38    39    1
    94    39    40    2
    95    39    96    1
    96    40    41    1
    97    40    97    1
    98    41    42   ar
    99    41    43   ar
   100    42    44   ar
   101    42    98    1
   102    43    45   ar
   103    43    99    1
   104    44    46   ar
   105    44   100    1
   106    45    46   ar
   107    45   101    1
