@<TRIPOS>MOLECULE
IMPHY015762
 77 81 0 0 0
SMALL
GASTEIGER

@<TRIPOS>ATOM
      1 O           8.9942    0.6550    0.0000 O.3     1  UNL1       -0.3313
      2 O           8.1282   -1.8450    0.0000 O.3     1  UNL1       -0.3461
      3 O           6.3961   -1.8450    0.0000 O.3     1  UNL1       -0.3431
      4 O           9.8602   -1.8450    0.0000 O.3     1  UNL1       -0.3865
      5 O           9.8602    2.1550    0.0000 O.3     1  UNL1       -0.4572
      6 O          11.5923   -0.8450    0.0000 O.3     1  UNL1       -0.3864
      7 O          11.5923    1.1550    0.0000 O.3     1  UNL1       -0.3829
      8 O           8.1282   -3.8450    0.0000 O.3     1  UNL1       -0.3841
      9 O           6.3961   -4.8450    0.0000 O.3     1  UNL1       -0.3864
     10 O           4.6641   -3.8450    0.0000 O.3     1  UNL1       -0.3866
     11 O           5.5301    2.6550    0.0000 O.3     1  UNL1       -0.4828
     12 O           9.8602    4.1550    0.0000 O.3     1  UNL1       -0.4915
     13 O           5.5301   -0.3450    0.0000 O.2     1  UNL1       -0.2917
     14 O           3.7817   -0.3796    0.0000 O.3     1  UNL1       -0.5058
     15 O           2.0000    2.6792    0.0000 O.3     1  UNL1       -0.5065
     16 C           8.9942   -0.3450    0.0000 C.3     1  UNL1        0.1144
     17 C           9.8602   -0.8450    0.0000 C.3     1  UNL1        0.1120
     18 C          10.7263   -0.3450    0.0000 C.3     1  UNL1        0.1152
     19 C          10.7263    0.6550    0.0000 C.3     1  UNL1        0.1454
     20 C           7.2622   -3.3450    0.0000 C.3     1  UNL1        0.1341
     21 C           7.2622   -2.3450    0.0000 C.3     1  UNL1        0.1879
     22 C           6.3961   -3.8450    0.0000 C.3     1  UNL1        0.1140
     23 C           5.5301   -3.3450    0.0000 C.3     1  UNL1        0.1095
     24 C           9.8602    1.1550    0.0000 C.3     1  UNL1        0.2310
     25 C           8.1282   -0.8450    0.0000 C.3     1  UNL1        0.0796
     26 C           5.5301   -2.3450    0.0000 C.3     1  UNL1        0.0873
     27 C           4.6641   -1.8450    0.0000 C.3     1  UNL1       -0.0361
     28 C           8.9942    2.6550    0.0000 C.ar    1  UNL1        0.1658
     29 C           8.1282    2.1550    0.0000 C.ar    1  UNL1       -0.0095
     30 C           6.3961    2.1550    0.0000 C.3     1  UNL1        0.1323
     31 C           7.2622    2.6550    0.0000 C.ar    1  UNL1       -0.0033
     32 C           8.9942    3.6550    0.0000 C.ar    1  UNL1        0.1616
     33 C           6.3961    1.1550    0.0000 C.3     1  UNL1        0.0520
     34 C           7.2622    3.6550    0.0000 C.ar    1  UNL1       -0.0514
     35 C           8.1282    4.1550    0.0000 C.ar    1  UNL1       -0.0159
     36 C           5.5301    0.6550    0.0000 C.2     1  UNL1        0.1740
     37 C           4.6641    1.1550    0.0000 C.ar    1  UNL1        0.1007
     38 C           4.6641    2.1550    0.0000 C.ar    1  UNL1        0.1389
     39 C           3.7702    0.6203    0.0000 C.ar    1  UNL1        0.1343
     40 C           3.7702    2.6897    0.0000 C.ar    1  UNL1        0.0225
     41 C           2.8641    2.1758    0.0000 C.ar    1  UNL1        0.1238
     42 C           2.8641    1.1342    0.0000 C.ar    1  UNL1        0.0222
     43 C           9.8602    5.1550    0.0000 C.3     1  UNL1        0.0790
     44 H           8.4573   -0.0350    0.0000 H       1  UNL1        0.0647
     45 H          10.3972   -1.1550    0.0000 H       1  UNL1        0.0647
     46 H          11.2632   -0.0350    0.0000 H       1  UNL1        0.0648
     47 H          11.2632    0.3450    0.0000 H       1  UNL1        0.0683
     48 H           7.2622   -3.9650    0.0000 H       1  UNL1        0.0671
     49 H           7.2622   -1.7250    0.0000 H       1  UNL1        0.0937
     50 H           5.8592   -4.1550    0.0000 H       1  UNL1        0.0648
     51 H           5.5301   -3.9650    0.0000 H       1  UNL1        0.0646
     52 H          10.3972    1.4650    0.0000 H       1  UNL1        0.1084
     53 H           7.9162   -0.2624    0.0000 H       1  UNL1        0.0587
     54 H           7.5176   -0.9527    0.0000 H       1  UNL1        0.0587
     55 H           5.5301   -1.7250    0.0000 H       1  UNL1        0.0621
     56 H           4.9741   -1.3081    0.0000 H       1  UNL1        0.0255
     57 H           4.1272   -1.5350    0.0000 H       1  UNL1        0.0255
     58 H           4.3541   -2.3819    0.0000 H       1  UNL1        0.0255
     59 H          10.3972   -2.1550    0.0000 H       1  UNL1        0.2100
     60 H          12.1292   -0.5350    0.0000 H       1  UNL1        0.2100
     61 H          11.5923    1.7750    0.0000 H       1  UNL1        0.2102
     62 H           8.6651   -3.5350    0.0000 H       1  UNL1        0.2101
     63 H           5.8592   -5.1550    0.0000 H       1  UNL1        0.2100
     64 H           4.1272   -3.5350    0.0000 H       1  UNL1        0.2100
     65 H           6.9331    1.8450    0.0000 H       1  UNL1        0.0789
     66 H           8.1282    1.5350    0.0000 H       1  UNL1        0.0659
     67 H           6.6082    0.5724    0.0000 H       1  UNL1        0.0385
     68 H           7.0067    1.2627    0.0000 H       1  UNL1        0.0385
     69 H           6.7252    3.9650    0.0000 H       1  UNL1        0.0623
     70 H           8.1282    4.7750    0.0000 H       1  UNL1        0.0655
     71 H           3.7773    3.3096    0.0000 H       1  UNL1        0.0691
     72 H           2.3284    0.8221    0.0000 H       1  UNL1        0.0691
     73 H          10.4803    5.1550    0.0000 H       1  UNL1        0.0660
     74 H           9.8602    5.7750    0.0000 H       1  UNL1        0.0660
     75 H           9.2402    5.1550    0.0000 H       1  UNL1        0.0660
     76 H           3.2484   -0.6958    0.0000 H       1  UNL1        0.2922
     77 H           2.0024    3.2992    0.0000 H       1  UNL1        0.2921
@<TRIPOS>BOND
     1     1    16    1
     2     1    24    1
     3    21     2    1
     4     2    25    1
     5     3    21    1
     6     3    26    1
     7    17     4    1
     8     4    59    1
     9    24     5    1
    10     5    28    1
    11    18     6    1
    12     6    60    1
    13    19     7    1
    14     7    61    1
    15    20     8    1
    16     8    62    1
    17    22     9    1
    18     9    63    1
    19    23    10    1
    20    10    64    1
    21    11    30    1
    22    11    38    1
    23    12    32    1
    24    12    43    1
    25    13    36    2
    26    14    39    1
    27    14    76    1
    28    15    41    1
    29    15    77    1
    30    16    17    1
    31    16    25    1
    32    16    44    1
    33    17    18    1
    34    17    45    1
    35    18    19    1
    36    18    46    1
    37    19    24    1
    38    19    47    1
    39    20    21    1
    40    20    22    1
    41    20    48    1
    42    21    49    1
    43    22    23    1
    44    22    50    1
    45    23    26    1
    46    23    51    1
    47    24    52    1
    48    25    53    1
    49    25    54    1
    50    26    27    1
    51    26    55    1
    52    27    56    1
    53    27    57    1
    54    27    58    1
    55    28    29   ar
    56    28    32   ar
    57    29    31   ar
    58    29    66    1
    59    30    31    1
    60    30    33    1
    61    30    65    1
    62    31    34   ar
    63    32    35   ar
    64    33    36    1
    65    33    67    1
    66    33    68    1
    67    34    35   ar
    68    34    69    1
    69    35    70    1
    70    36    37    1
    71    37    38   ar
    72    37    39   ar
    73    38    40   ar
    74    39    42   ar
    75    40    41   ar
    76    40    71    1
    77    41    42   ar
    78    42    72    1
    79    43    73    1
    80    43    74    1
    81    43    75    1
