@<TRIPOS>MOLECULE
IMPHY012209
 42 44 0 0 0
SMALL
GASTEIGER

@<TRIPOS>ATOM
      1 O           5.3693    1.9986    0.0000 O.3     1  UNL1       -0.3886
      2 C           4.0430   -0.7554    0.0000 C.3     1  UNL1       -0.0229
      3 C           3.1420   -0.3215    0.0000 C.3     1  UNL1       -0.0296
      4 C           2.9195    0.6534    0.0000 C.3     1  UNL1       -0.0261
      5 C           3.5430    1.4352    0.0000 C.3     1  UNL1       -0.0065
      6 C           4.1499    0.4214    0.0000 C.3     1  UNL1       -0.0409
      7 C           3.9070   -1.7401    0.0000 C.3     1  UNL1       -0.0379
      8 C           4.9440   -0.3215    0.0000 C.3     1  UNL1       -0.0442
      9 C           4.5430    1.4352    0.0000 C.3     1  UNL1        0.0667
     10 C           2.4569   -1.0418    0.0000 C.3     1  UNL1       -0.0489
     11 C           2.9288   -1.9168    0.0000 C.3     1  UNL1       -0.0497
     12 C           5.1665    0.6534    0.0000 C.3     1  UNL1       -0.0235
     13 C           2.2616    1.4065    0.0000 C.3     1  UNL1       -0.0592
     14 C           2.0000    0.2604    0.0000 C.3     1  UNL1       -0.0592
     15 C           4.6286   -2.4324    0.0000 C.3     1  UNL1       -0.0619
     16 C           4.4683    2.4324    0.0000 C.3     1  UNL1       -0.0358
     17 H           2.3762    0.0473    0.0000 H       1  UNL1        0.0311
     18 H           3.3539    2.2639    0.0000 H       1  UNL1        0.0334
     19 H           4.7199    0.1775    0.0000 H       1  UNL1        0.0274
     20 H           4.5577    0.8884    0.0000 H       1  UNL1        0.0274
     21 H           3.7279   -2.3337    0.0000 H       1  UNL1        0.0304
     22 H           5.0820   -0.9260    0.0000 H       1  UNL1        0.0272
     23 H           5.5640   -0.3215    0.0000 H       1  UNL1        0.0272
     24 H           2.0551   -0.5697    0.0000 H       1  UNL1        0.0268
     25 H           1.9452   -1.3918    0.0000 H       1  UNL1        0.0268
     26 H           2.3551   -2.1521    0.0000 H       1  UNL1        0.0268
     27 H           3.1025   -2.5120    0.0000 H       1  UNL1        0.0268
     28 H           5.7251    0.3844    0.0000 H       1  UNL1        0.0293
     29 H           5.5531    1.1382    0.0000 H       1  UNL1        0.0293
     30 H           2.7285    1.8144    0.0000 H       1  UNL1        0.0235
     31 H           1.8537    1.8734    0.0000 H       1  UNL1        0.0235
     32 H           1.7947    0.9986    0.0000 H       1  UNL1        0.0235
     33 H           1.7563    0.8305    0.0000 H       1  UNL1        0.0235
     34 H           1.4299    0.0167    0.0000 H       1  UNL1        0.0235
     35 H           2.2437   -0.3097    0.0000 H       1  UNL1        0.0235
     36 H           4.1994   -2.8798    0.0000 H       1  UNL1        0.0233
     37 H           5.0760   -2.8617    0.0000 H       1  UNL1        0.0233
     38 H           5.0578   -1.9851    0.0000 H       1  UNL1        0.0233
     39 H           5.0866    2.4788    0.0000 H       1  UNL1        0.0257
     40 H           4.4220    3.0507    0.0000 H       1  UNL1        0.0257
     41 H           3.8500    2.3861    0.0000 H       1  UNL1        0.0257
     42 H           5.9279    1.7296    0.0000 H       1  UNL1        0.2102
@<TRIPOS>BOND
     1     9     1    1
     2     1    42    1
     3     2     3    1
     4     2     6    1
     5     2     7    1
     6     2     8    1
     7     3     4    1
     8     3    10    1
     9     3    17    1
    10     4     5    1
    11     4    13    1
    12     4    14    1
    13     5     6    1
    14     5     9    1
    15     5    18    1
    16     6    19    1
    17     6    20    1
    18     7    11    1
    19     7    15    1
    20     7    21    1
    21     8    12    1
    22     8    22    1
    23     8    23    1
    24     9    12    1
    25     9    16    1
    26    10    11    1
    27    10    24    1
    28    10    25    1
    29    11    26    1
    30    11    27    1
    31    12    28    1
    32    12    29    1
    33    13    30    1
    34    13    31    1
    35    13    32    1
    36    14    33    1
    37    14    34    1
    38    14    35    1
    39    15    36    1
    40    15    37    1
    41    15    38    1
    42    16    39    1
    43    16    40    1
    44    16    41    1
