@<TRIPOS>MOLECULE
IMPHY017451
 32 32 0 0 0
SMALL
GASTEIGER

@<TRIPOS>ATOM
      1 O           2.0000    0.6340    0.0000 O.2     1  UNL1       -0.2968
      2 C           3.7320    0.6340    0.0000 C.3     1  UNL1        0.0285
      3 C           4.5981    0.1340    0.0000 C.3     1  UNL1       -0.0404
      4 C           4.2320    1.5000    0.0000 C.3     1  UNL1       -0.0346
      5 C           3.7320   -1.3660    0.0000 C.3     1  UNL1       -0.0372
      6 C           4.5981   -0.8660    0.0000 C.3     1  UNL1       -0.0492
      7 C           2.8660    0.1340    0.0000 C.2     1  UNL1        0.1397
      8 C           2.8660   -0.8660    0.0000 C.3     1  UNL1        0.0090
      9 C           3.2320    1.5000    0.0000 C.3     1  UNL1       -0.0526
     10 C           5.2320    1.5000    0.0000 C.3     1  UNL1       -0.0618
     11 C           3.7320    2.3660    0.0000 C.3     1  UNL1       -0.0618
     12 C           3.7320   -2.3660    0.0000 C.3     1  UNL1       -0.0620
     13 H           5.2087    0.0263    0.0000 H       1  UNL1        0.0275
     14 H           4.8101    0.7166    0.0000 H       1  UNL1        0.0275
     15 H           4.5420    0.9631    0.0000 H       1  UNL1        0.0305
     16 H           4.2690   -1.6760    0.0000 H       1  UNL1        0.0302
     17 H           4.8101   -1.4486    0.0000 H       1  UNL1        0.0268
     18 H           5.2087   -0.7584    0.0000 H       1  UNL1        0.0268
     19 H           2.2554   -0.7584    0.0000 H       1  UNL1        0.0344
     20 H           2.6540   -1.4486    0.0000 H       1  UNL1        0.0344
     21 H           3.7690    1.8100    0.0000 H       1  UNL1        0.0239
     22 H           2.9220    2.0369    0.0000 H       1  UNL1        0.0239
     23 H           2.6951    1.1900    0.0000 H       1  UNL1        0.0239
     24 H           5.2320    0.8800    0.0000 H       1  UNL1        0.0233
     25 H           5.8520    1.5000    0.0000 H       1  UNL1        0.0233
     26 H           5.2320    2.1200    0.0000 H       1  UNL1        0.0233
     27 H           4.2690    2.6760    0.0000 H       1  UNL1        0.0233
     28 H           3.4220    2.9030    0.0000 H       1  UNL1        0.0233
     29 H           3.1951    2.0560    0.0000 H       1  UNL1        0.0233
     30 H           3.1120   -2.3660    0.0000 H       1  UNL1        0.0233
     31 H           3.7320   -2.9860    0.0000 H       1  UNL1        0.0233
     32 H           4.3520   -2.3660    0.0000 H       1  UNL1        0.0233
@<TRIPOS>BOND
     1     1     7    2
     2     2     3    1
     3     2     4    1
     4     2     7    1
     5     2     9    1
     6     3     6    1
     7     3    13    1
     8     3    14    1
     9     4    10    1
    10     4    11    1
    11     4    15    1
    12     5     6    1
    13     5     8    1
    14     5    12    1
    15     5    16    1
    16     6    17    1
    17     6    18    1
    18     7     8    1
    19     8    19    1
    20     8    20    1
    21     9    21    1
    22     9    22    1
    23     9    23    1
    24    10    24    1
    25    10    25    1
    26    10    26    1
    27    11    27    1
    28    11    28    1
    29    11    29    1
    30    12    30    1
    31    12    31    1
    32    12    32    1
