@<TRIPOS>MOLECULE
IMPHY012214
 40 41 0 0 0
SMALL
GASTEIGER

@<TRIPOS>ATOM
      1 CL          6.0682   -1.1754    0.0000 Cl      1  UNL1        0.0000
      2 O           6.0682   -0.1754    0.0000 O.2     2  UNL2       -0.1997
      3 O           7.8003    1.8246    0.0000 O.3     2  UNL2       -0.4995
      4 O          10.3984    0.3246    0.0000 O.3     2  UNL2       -0.4913
      5 O           8.6663   -2.6754    0.0000 O.3     2  UNL2       -0.4913
      6 O           4.3198    2.8592    0.0000 O.3     2  UNL2       -0.5057
      7 O          10.3984   -1.6754    0.0000 O.3     2  UNL2       -0.5009
      8 O           2.5381   -0.1995    0.0000 O.3     2  UNL2       -0.5063
      9 C           6.9343    0.3246    0.0000 C.ar    2  UNL2        0.4045
     10 C           7.8003   -0.1754    0.0000 C.ar    2  UNL2        0.0899
     11 C           5.2022    1.3246    0.0000 C.ar    2  UNL2        0.1241
     12 C           5.2022    0.3246    0.0000 C.ar    2  UNL2        0.3708
     13 C           6.9343    1.3246    0.0000 C.ar    2  UNL2        0.2238
     14 C           6.0682    1.8246    0.0000 C.ar    2  UNL2        0.0090
     15 C           7.8003   -1.1754    0.0000 C.ar    2  UNL2        0.0002
     16 C           8.6663    0.3246    0.0000 C.ar    2  UNL2        0.0002
     17 C           4.3083    1.8593    0.0000 C.ar    2  UNL2        0.1366
     18 C           4.3083   -0.2101    0.0000 C.ar    2  UNL2        0.0847
     19 C           9.5323   -0.1754    0.0000 C.ar    2  UNL2        0.1658
     20 C           8.6663   -1.6754    0.0000 C.ar    2  UNL2        0.1658
     21 C           9.5323   -1.1754    0.0000 C.ar    2  UNL2        0.2011
     22 C           3.4022    0.3038    0.0000 C.ar    2  UNL2        0.1293
     23 C           3.4022    1.3454    0.0000 C.ar    2  UNL2        0.0225
     24 C          10.3984    1.3246    0.0000 C.3     2  UNL2        0.0790
     25 C           7.8003   -3.1754    0.0000 C.3     2  UNL2        0.0790
     26 H           6.0682    2.4446    0.0000 H       2  UNL2        0.0667
     27 H           7.2634   -1.4854    0.0000 H       2  UNL2        0.0664
     28 H           8.6663    0.9446    0.0000 H       2  UNL2        0.0664
     29 H           4.3154   -0.8300    0.0000 H       2  UNL2        0.0749
     30 H           2.8665    1.6575    0.0000 H       2  UNL2        0.0691
     31 H           7.8003    2.4446    0.0000 H       2  UNL2        0.2925
     32 H           3.7865    3.1754    0.0000 H       2  UNL2        0.2922
     33 H          10.3984   -2.2954    0.0000 H       2  UNL2        0.2924
     34 H           2.0000    0.1084    0.0000 H       2  UNL2        0.2921
     35 H          11.0184    1.3246    0.0000 H       2  UNL2        0.0660
     36 H          10.3984    1.9446    0.0000 H       2  UNL2        0.0660
     37 H           9.7784    1.3246    0.0000 H       2  UNL2        0.0660
     38 H           7.4903   -2.6385    0.0000 H       2  UNL2        0.0660
     39 H           7.2634   -3.4854    0.0000 H       2  UNL2        0.0660
     40 H           8.1103   -3.7123    0.0000 H       2  UNL2        0.0660
@<TRIPOS>UNITY_ATOM_ATTR
1 1
charge -1
2 1
charge 1
@<TRIPOS>BOND
     1     2     9   ar
     2     2    12   ar
     3     3    13    1
     4     3    31    1
     5     4    19    1
     6     4    24    1
     7     5    20    1
     8     5    25    1
     9     6    17    1
    10     6    32    1
    11     7    21    1
    12     7    33    1
    13     8    22    1
    14     8    34    1
    15     9    10    1
    16     9    13   ar
    17    10    15   ar
    18    10    16   ar
    19    11    12   ar
    20    11    14   ar
    21    11    17   ar
    22    12    18   ar
    23    13    14   ar
    24    14    26    1
    25    15    20   ar
    26    15    27    1
    27    16    19   ar
    28    16    28    1
    29    17    23   ar
    30    18    22   ar
    31    18    29    1
    32    19    21   ar
    33    20    21   ar
    34    22    23   ar
    35    23    30    1
    36    24    35    1
    37    24    36    1
    38    24    37    1
    39    25    38    1
    40    25    39    1
    41    25    40    1
