@<TRIPOS>MOLECULE
IMPHY000663
 64 69 0 0 0
SMALL
GASTEIGER

@<TRIPOS>ATOM
      1 O           5.5711   -1.3905    0.0000 O.3     1  UNL1       -0.3645
      2 O           3.5128   -0.0646    0.0000 O.3     1  UNL1       -0.4577
      3 O           6.2497    3.1128    0.0000 O.2     1  UNL1       -0.2921
      4 O           2.0000    0.8303    0.0000 O.2     1  UNL1       -0.2499
      5 O           8.8260    1.5814    0.0000 O.3     1  UNL1       -0.4679
      6 O           7.9599    0.0814    0.0000 O.2     1  UNL1       -0.2509
      7 O          10.6733   -2.2374    0.0000 O.2     1  UNL1       -0.4707
      8 C           6.2279    0.0814    0.0000 C.3     1  UNL1        0.0255
      9 C           4.4958    1.0814    0.0000 C.3     1  UNL1        0.0303
     10 C           5.3618    1.5814    0.0000 C.3     1  UNL1        0.0419
     11 C           6.2279    1.0814    0.0000 C.3     1  UNL1       -0.0065
     12 C           5.3618   -0.4186    0.0000 C.3     1  UNL1        0.1059
     13 C           4.4958    0.0814    0.0000 C.3     1  UNL1        0.1349
     14 C           3.5858    1.5882    0.0000 C.3     1  UNL1        0.0905
     15 C           6.9649   -0.5857    0.0000 C.2     1  UNL1       -0.0328
     16 C           6.5598   -1.4935    0.0000 C.3     1  UNL1        0.0819
     17 C           7.0939    0.5814    0.0000 C.3     1  UNL1       -0.0530
     18 C           7.0939    1.5814    0.0000 C.3     1  UNL1        0.0495
     19 C           5.3779    2.6229    0.0000 C.2     1  UNL1        0.1624
     20 C           6.2279    2.0814    0.0000 C.3     1  UNL1       -0.0518
     21 C           7.9473   -0.6924    0.0000 C.2     1  UNL1       -0.0628
     22 C           7.2953   -2.1535    0.0000 C.3     1  UNL1       -0.0121
     23 C           2.9990    0.7861    0.0000 C.2     1  UNL1        0.3176
     24 C           8.1511   -1.6594    0.0000 C.3     1  UNL1        0.0109
     25 C           3.5778    2.6298    0.0000 C.2     1  UNL1       -0.0639
     26 C           2.5859    1.5767    0.0000 C.3     1  UNL1       -0.0454
     27 C           4.4799    3.1506    0.0000 C.2     1  UNL1       -0.0215
     28 C           8.6184    0.0490    0.0000 C.3     1  UNL1       -0.0429
     29 C           7.9599    1.0814    0.0000 C.2     1  UNL1        0.3071
     30 C           9.0643   -2.0669    0.0000 C.ar    1  UNL1       -0.0025
     31 C           9.2714   -3.0452    0.0000 C.ar    1  UNL1       -0.0202
     32 C           9.9307   -1.5676    0.0000 C.ar    1  UNL1        0.0954
     33 C          10.2658   -3.1506    0.0000 C.ar    1  UNL1        0.0920
     34 C           9.6920    1.0814    0.0000 C.3     1  UNL1        0.0817
     35 H           4.4893    1.9313    0.0000 H       1  UNL1        0.0361
     36 H           6.9640    0.6564    0.0000 H       1  UNL1        0.0325
     37 H           4.6748   -0.9192    0.0000 H       1  UNL1        0.0642
     38 H           4.3369   -0.7536    0.0000 H       1  UNL1        0.0764
     39 H           6.2151   -2.2705    0.0000 H       1  UNL1        0.0644
     40 H           7.4039    0.0444    0.0000 H       1  UNL1        0.0239
     41 H           7.6308    0.8914    0.0000 H       1  UNL1        0.0239
     42 H           6.7839    1.1183    0.0000 H       1  UNL1        0.0239
     43 H           7.4924    2.0563    0.0000 H       1  UNL1        0.0381
     44 H           6.6954    2.0563    0.0000 H       1  UNL1        0.0381
     45 H           6.5379    1.5444    0.0000 H       1  UNL1        0.0239
     46 H           6.7648    2.3914    0.0000 H       1  UNL1        0.0239
     47 H           5.9179    2.6183    0.0000 H       1  UNL1        0.0239
     48 H           6.8350   -2.5689    0.0000 H       1  UNL1        0.0302
     49 H           7.6600   -2.6548    0.0000 H       1  UNL1        0.0302
     50 H           8.8124   -1.1253    0.0000 H       1  UNL1        0.0396
     51 H           3.0397    2.9377    0.0000 H       1  UNL1        0.0584
     52 H           2.5787    2.1966    0.0000 H       1  UNL1        0.0243
     53 H           1.9659    1.5695    0.0000 H       1  UNL1        0.0243
     54 H           2.5930    0.9567    0.0000 H       1  UNL1        0.0243
     55 H           4.4823    3.7706    0.0000 H       1  UNL1        0.0650
     56 H           9.0780   -0.3671    0.0000 H       1  UNL1        0.0275
     57 H           9.0344    0.5087    0.0000 H       1  UNL1        0.0275
     58 H           8.1587    0.4650    0.0000 H       1  UNL1        0.0275
     59 H           8.8561   -3.5056    0.0000 H       1  UNL1        0.0652
     60 H           9.9961   -0.9511    0.0000 H       1  UNL1        0.1032
     61 H          10.5753   -3.6878    0.0000 H       1  UNL1        0.1029
     62 H           9.3820    0.5444    0.0000 H       1  UNL1        0.0661
     63 H          10.2289    0.7714    0.0000 H       1  UNL1        0.0661
     64 H          10.0020    1.6183    0.0000 H       1  UNL1        0.0661
@<TRIPOS>BOND
     1     1    12    1
     2     1    16    1
     3     2    13    1
     4     2    23    1
     5     3    19    2
     6     4    23    2
     7     5    29    1
     8     5    34    1
     9     6    29    2
    10     7    32   ar
    11     7    33   ar
    12     8    11    1
    13     8    12    1
    14     8    15    1
    15     8    17    1
    16     9    10    1
    17     9    13    1
    18     9    14    1
    19     9    35    1
    20    10    11    1
    21    10    19    1
    22    10    20    1
    23    11    18    1
    24    11    36    1
    25    12    13    1
    26    12    37    1
    27    13    38    1
    28    14    23    1
    29    14    25    1
    30    14    26    1
    31    15    16    1
    32    15    21    2
    33    16    22    1
    34    16    39    1
    35    17    40    1
    36    17    41    1
    37    17    42    1
    38    18    29    1
    39    18    43    1
    40    18    44    1
    41    19    27    1
    42    20    45    1
    43    20    46    1
    44    20    47    1
    45    21    24    1
    46    21    28    1
    47    22    24    1
    48    22    48    1
    49    22    49    1
    50    24    30    1
    51    24    50    1
    52    25    27    2
    53    25    51    1
    54    26    52    1
    55    26    53    1
    56    26    54    1
    57    27    55    1
    58    28    56    1
    59    28    57    1
    60    28    58    1
    61    30    31   ar
    62    30    32   ar
    63    31    33   ar
    64    31    59    1
    65    32    60    1
    66    33    61    1
    67    34    62    1
    68    34    63    1
    69    34    64    1
