@<TRIPOS>MOLECULE
IMPHY017590
 37 38 0 0 0
SMALL
GASTEIGER

@<TRIPOS>ATOM
      1 O           2.8660   -1.5000    0.0000 O.2     1  UNL1       -0.2974
      2 C           5.4641   -0.0000    0.0000 C.3     1  UNL1       -0.0079
      3 C           6.3580   -0.5347    0.0000 C.3     1  UNL1       -0.0345
      4 C           4.5981   -0.5000    0.0000 C.3     1  UNL1       -0.0341
      5 C           5.4641    1.0000    0.0000 C.2     1  UNL1       -0.0673
      6 C           3.7320   -0.0000    0.0000 C.3     1  UNL1        0.0183
      7 C           4.5981    1.5000    0.0000 C.3     1  UNL1       -0.0306
      8 C           7.2641   -0.0208    0.0000 C.3     1  UNL1       -0.0462
      9 C           3.7320    1.0000    0.0000 C.3     1  UNL1       -0.0398
     10 C           5.4641   -1.0000    0.0000 C.3     1  UNL1       -0.0556
     11 C           7.2641    1.0208    0.0000 C.3     1  UNL1       -0.0342
     12 C           6.3580    1.5346    0.0000 C.2     1  UNL1       -0.0842
     13 C           6.3465   -1.5346    0.0000 C.3     1  UNL1       -0.0616
     14 C           2.8660   -0.5000    0.0000 C.2     1  UNL1        0.1334
     15 C           2.0000   -0.0000    0.0000 C.3     1  UNL1       -0.0058
     16 H           6.8920   -0.8499    0.0000 H       1  UNL1        0.0307
     17 H           4.1996   -0.9750    0.0000 H       1  UNL1        0.0280
     18 H           4.9966   -0.9750    0.0000 H       1  UNL1        0.0280
     19 H           3.7320   -0.6200    0.0000 H       1  UNL1        0.0378
     20 H           4.9966    1.9749    0.0000 H       1  UNL1        0.0310
     21 H           4.1996    1.9749    0.0000 H       1  UNL1        0.0310
     22 H           7.4732   -0.6045    0.0000 H       1  UNL1        0.0271
     23 H           7.8750    0.0852    0.0000 H       1  UNL1        0.0271
     24 H           3.5200    1.5826    0.0000 H       1  UNL1        0.0275
     25 H           3.1215    0.8923    0.0000 H       1  UNL1        0.0275
     26 H           4.8441   -1.0000    0.0000 H       1  UNL1        0.0238
     27 H           5.4641   -1.6200    0.0000 H       1  UNL1        0.0238
     28 H           6.0841   -1.0000    0.0000 H       1  UNL1        0.0238
     29 H           7.8750    0.9147    0.0000 H       1  UNL1        0.0307
     30 H           7.4732    1.6045    0.0000 H       1  UNL1        0.0307
     31 H           6.3509    2.1546    0.0000 H       1  UNL1        0.0572
     32 H           5.7265   -1.5275    0.0000 H       1  UNL1        0.0233
     33 H           6.3393   -2.1546    0.0000 H       1  UNL1        0.0233
     34 H           6.9664   -1.5418    0.0000 H       1  UNL1        0.0233
     35 H           2.3100    0.5369    0.0000 H       1  UNL1        0.0306
     36 H           1.4631    0.3100    0.0000 H       1  UNL1        0.0306
     37 H           1.6900   -0.5370    0.0000 H       1  UNL1        0.0306
@<TRIPOS>BOND
     1     1    14    2
     2     2     3    1
     3     2     4    1
     4     2     5    1
     5     2    10    1
     6     3     8    1
     7     3    13    1
     8     3    16    1
     9     4     6    1
    10     4    17    1
    11     4    18    1
    12     5     7    1
    13     5    12    2
    14     6     9    1
    15     6    14    1
    16     6    19    1
    17     7     9    1
    18     7    20    1
    19     7    21    1
    20     8    11    1
    21     8    22    1
    22     8    23    1
    23     9    24    1
    24     9    25    1
    25    10    26    1
    26    10    27    1
    27    10    28    1
    28    11    12    1
    29    11    29    1
    30    11    30    1
    31    12    31    1
    32    13    32    1
    33    13    33    1
    34    13    34    1
    35    14    15    1
    36    15    35    1
    37    15    36    1
    38    15    37    1
