@<TRIPOS>MOLECULE
IMPHY008465
 46 48 0 0 0
SMALL
GASTEIGER

@<TRIPOS>ATOM
      1 O           2.3660    0.4827    0.0000 O.3     1  UNL1       -0.3618
      2 O           5.0981    0.4827    0.0000 O.3     1  UNL1       -0.4889
      3 O           8.5901    0.4480    0.0000 O.2     1  UNL1       -0.4217
      4 O           5.0981   -0.5173    0.0000 O.2     1  UNL1       -0.2968
      5 O          10.3603    0.4585    0.0000 O.2     1  UNL1       -0.2452
      6 C           2.8660   -0.3834    0.0000 C.3     1  UNL1        0.0938
      7 C           3.3660    0.4827    0.0000 C.3     1  UNL1        0.1216
      8 C           4.2320    0.9827    0.0000 C.3     1  UNL1        0.1184
      9 C           2.0000   -0.8834    0.0000 C.3     1  UNL1       -0.0335
     10 C           3.7320   -0.8834    0.0000 C.3     1  UNL1       -0.0335
     11 C           5.9641    0.9827    0.0000 C.ar    1  UNL1        0.1277
     12 C           6.8301    0.4827    0.0000 C.ar    1  UNL1        0.0442
     13 C           6.8301   -0.5173    0.0000 C.3     1  UNL1        0.0382
     14 C           5.9641    1.9827    0.0000 C.ar    1  UNL1       -0.0189
     15 C           7.6962    0.9827    0.0000 C.ar    1  UNL1        0.1461
     16 C           7.6962    1.9827    0.0000 C.ar    1  UNL1        0.0181
     17 C           5.9641   -1.0173    0.0000 C.2     1  UNL1        0.1404
     18 C           5.9641   -2.0173    0.0000 C.3     1  UNL1        0.0122
     19 C           6.8301    2.4827    0.0000 C.ar    1  UNL1       -0.0476
     20 C           6.8301   -2.5173    0.0000 C.3     1  UNL1       -0.0559
     21 C           5.0981   -2.5173    0.0000 C.3     1  UNL1       -0.0559
     22 C           8.5901    2.5173    0.0000 C.ar    1  UNL1       -0.0443
     23 C           9.4962    2.0035    0.0000 C.ar    1  UNL1        0.0236
     24 C           9.4962    0.9619    0.0000 C.ar    1  UNL1        0.3372
     25 H           3.2056    1.0815    0.0000 H       1  UNL1        0.0659
     26 H           4.6306    1.4576    0.0000 H       1  UNL1        0.0724
     27 H           3.8335    1.4576    0.0000 H       1  UNL1        0.0724
     28 H           3.4220   -1.4203    0.0000 H       1  UNL1        0.0258
     29 H           4.2690   -1.1934    0.0000 H       1  UNL1        0.0258
     30 H           4.0420   -0.3464    0.0000 H       1  UNL1        0.0258
     31 H           1.6900   -0.3464    0.0000 H       1  UNL1        0.0258
     32 H           1.4631   -1.1934    0.0000 H       1  UNL1        0.0258
     33 H           2.3100   -1.4203    0.0000 H       1  UNL1        0.0258
     34 H           7.0422   -1.0999    0.0000 H       1  UNL1        0.0392
     35 H           7.4407   -0.4097    0.0000 H       1  UNL1        0.0392
     36 H           5.4272    2.2927    0.0000 H       1  UNL1        0.0654
     37 H           5.9641   -2.6373    0.0000 H       1  UNL1        0.0372
     38 H           6.8301    3.1027    0.0000 H       1  UNL1        0.0626
     39 H           6.5201   -3.0543    0.0000 H       1  UNL1        0.0236
     40 H           4.7881   -1.9804    0.0000 H       1  UNL1        0.0236
     41 H           4.5611   -2.8273    0.0000 H       1  UNL1        0.0236
     42 H           5.4081   -3.0543    0.0000 H       1  UNL1        0.0236
     43 H           7.3671   -2.8273    0.0000 H       1  UNL1        0.0236
     44 H           7.1401   -1.9804    0.0000 H       1  UNL1        0.0236
     45 H           8.5829    3.1373    0.0000 H       1  UNL1        0.0627
     46 H          10.0319    2.3156    0.0000 H       1  UNL1        0.0689
@<TRIPOS>BOND
     1     1     6    1
     2     1     7    1
     3     2     8    1
     4     2    11    1
     5     3    15   ar
     6     3    24   ar
     7     4    17    2
     8     5    24    2
     9     6     7    1
    10     6     9    1
    11     6    10    1
    12     7     8    1
    13     7    25    1
    14     8    26    1
    15     8    27    1
    16     9    31    1
    17     9    32    1
    18     9    33    1
    19    10    28    1
    20    10    29    1
    21    10    30    1
    22    11    12   ar
    23    11    14   ar
    24    12    13    1
    25    12    15   ar
    26    13    17    1
    27    13    34    1
    28    13    35    1
    29    14    19   ar
    30    14    36    1
    31    15    16   ar
    32    16    19   ar
    33    16    22   ar
    34    17    18    1
    35    18    20    1
    36    18    21    1
    37    18    37    1
    38    19    38    1
    39    20    39    1
    40    20    43    1
    41    20    44    1
    42    21    40    1
    43    21    41    1
    44    21    42    1
    45    22    23   ar
    46    22    45    1
    47    23    24   ar
    48    23    46    1
