@<TRIPOS>MOLECULE
IMPHY012487
 25 26 0 0 0
SMALL
GASTEIGER

@<TRIPOS>ATOM
      1 O           5.5443   -1.1824    0.0000 O.2     1  UNL1       -0.4672
      2 C           2.8660   -0.8776    0.0000 C.3     1  UNL1       -0.0367
      3 C           2.8660    0.1224    0.0000 C.3     1  UNL1       -0.0460
      4 C           3.7320   -1.3776    0.0000 C.3     1  UNL1        0.0084
      5 C           3.7320    0.6224    0.0000 C.3     1  UNL1       -0.0239
      6 C           4.5981    0.1224    0.0000 C.ar    1  UNL1       -0.0036
      7 C           4.5981   -0.8776    0.0000 C.ar    1  UNL1        0.1085
      8 C           2.0000   -1.3776    0.0000 C.3     1  UNL1       -0.0620
      9 C           5.5443    0.4271    0.0000 C.ar    1  UNL1       -0.0093
     10 C           6.1279   -0.3776    0.0000 C.ar    1  UNL1        0.0952
     11 C           5.8550    1.3776    0.0000 C.3     1  UNL1       -0.0365
     12 H           2.8660   -1.4976    0.0000 H       1  UNL1        0.0302
     13 H           2.6540    0.7050    0.0000 H       1  UNL1        0.0271
     14 H           2.2554    0.0147    0.0000 H       1  UNL1        0.0271
     15 H           3.3335   -1.8526    0.0000 H       1  UNL1        0.0346
     16 H           4.1306   -1.8526    0.0000 H       1  UNL1        0.0346
     17 H           4.1306    1.0973    0.0000 H       1  UNL1        0.0314
     18 H           3.3335    1.0973    0.0000 H       1  UNL1        0.0314
     19 H           1.6900   -0.8407    0.0000 H       1  UNL1        0.0233
     20 H           1.4631   -1.6876    0.0000 H       1  UNL1        0.0233
     21 H           2.3100   -1.9146    0.0000 H       1  UNL1        0.0233
     22 H           6.7479   -0.3776    0.0000 H       1  UNL1        0.1032
     23 H           6.4443    1.1850    0.0000 H       1  UNL1        0.0279
     24 H           6.0476    1.9670    0.0000 H       1  UNL1        0.0279
     25 H           5.2656    1.5702    0.0000 H       1  UNL1        0.0279
@<TRIPOS>BOND
     1     1     7   ar
     2     1    10   ar
     3     2     3    1
     4     2     4    1
     5     2     8    1
     6     2    12    1
     7     3     5    1
     8     3    13    1
     9     3    14    1
    10     4     7    1
    11     4    15    1
    12     4    16    1
    13     5     6    1
    14     5    17    1
    15     5    18    1
    16     6     7   ar
    17     6     9   ar
    18     8    19    1
    19     8    20    1
    20     8    21    1
    21     9    10   ar
    22     9    11    1
    23    10    22    1
    24    11    23    1
    25    11    24    1
    26    11    25    1
