@<TRIPOS>MOLECULE
IMPHY010899
 36 36 0 0 0
SMALL
GASTEIGER

@<TRIPOS>ATOM
      1 O           4.5981    0.5000    0.0000 O.3     1  UNL1       -0.4254
      2 O           6.3301    0.5000    0.0000 O.2     1  UNL1       -0.2501
      3 C           2.8660   -0.5000    0.0000 C.3     1  UNL1       -0.0180
      4 C           3.7320   -1.0000    0.0000 C.ar    1  UNL1       -0.0024
      5 C           4.5981   -0.5000    0.0000 C.ar    1  UNL1        0.1353
      6 C           2.0000   -1.0000    0.0000 C.3     1  UNL1       -0.0585
      7 C           2.8660    0.5000    0.0000 C.3     1  UNL1       -0.0585
      8 C           3.7320   -2.0000    0.0000 C.ar    1  UNL1       -0.0546
      9 C           5.4641    2.0000    0.0000 C.3     1  UNL1        0.0512
     10 C           5.4641   -1.0000    0.0000 C.ar    1  UNL1       -0.0160
     11 C           5.4641   -2.0000    0.0000 C.ar    1  UNL1       -0.0470
     12 C           4.5981   -2.5000    0.0000 C.ar    1  UNL1       -0.0583
     13 C           5.4641    1.0000    0.0000 C.2     1  UNL1        0.3149
     14 C           6.3301    2.5000    0.0000 C.3     1  UNL1       -0.0525
     15 C           4.5981    2.5000    0.0000 C.3     1  UNL1       -0.0525
     16 C           6.3301   -2.5000    0.0000 C.3     1  UNL1       -0.0396
     17 H           2.8660   -1.1200    0.0000 H       1  UNL1        0.0345
     18 H           1.6900   -0.4631    0.0000 H       1  UNL1        0.0235
     19 H           1.4631   -1.3100    0.0000 H       1  UNL1        0.0235
     20 H           2.3100   -1.5369    0.0000 H       1  UNL1        0.0235
     21 H           3.4860    0.5000    0.0000 H       1  UNL1        0.0235
     22 H           2.8660    1.1200    0.0000 H       1  UNL1        0.0235
     23 H           2.2460    0.5000    0.0000 H       1  UNL1        0.0235
     24 H           3.1951   -2.3100    0.0000 H       1  UNL1        0.0622
     25 H           5.4641    2.6200    0.0000 H       1  UNL1        0.0408
     26 H           6.0010   -0.6900    0.0000 H       1  UNL1        0.0657
     27 H           4.5981   -3.1200    0.0000 H       1  UNL1        0.0620
     28 H           6.6401    1.9631    0.0000 H       1  UNL1        0.0237
     29 H           6.8671    2.8100    0.0000 H       1  UNL1        0.0237
     30 H           6.0201    3.0369    0.0000 H       1  UNL1        0.0237
     31 H           4.9081    3.0369    0.0000 H       1  UNL1        0.0237
     32 H           4.0611    2.8100    0.0000 H       1  UNL1        0.0237
     33 H           4.2881    1.9631    0.0000 H       1  UNL1        0.0237
     34 H           6.0201   -3.0369    0.0000 H       1  UNL1        0.0278
     35 H           6.8671   -2.8100    0.0000 H       1  UNL1        0.0278
     36 H           6.6401   -1.9631    0.0000 H       1  UNL1        0.0278
@<TRIPOS>BOND
     1     1     5    1
     2     1    13    1
     3     2    13    2
     4     3     4    1
     5     3     6    1
     6     3     7    1
     7     3    17    1
     8     4     5   ar
     9     4     8   ar
    10     5    10   ar
    11     6    18    1
    12     6    19    1
    13     6    20    1
    14     7    21    1
    15     7    22    1
    16     7    23    1
    17     8    12   ar
    18     8    24    1
    19     9    13    1
    20     9    14    1
    21     9    15    1
    22     9    25    1
    23    10    11   ar
    24    10    26    1
    25    11    12   ar
    26    11    16    1
    27    12    27    1
    28    14    28    1
    29    14    29    1
    30    14    30    1
    31    15    31    1
    32    15    32    1
    33    15    33    1
    34    16    34    1
    35    16    35    1
    36    16    36    1
