@<TRIPOS>MOLECULE
IMPHY008997
 146 153 0 0 0
SMALL
GASTEIGER

@<TRIPOS>ATOM
      1 O           9.4651   -1.8322    0.0000 O.3     1  UNL1       -0.3448
      2 O          11.2405    7.5222    0.0000 O.3     1  UNL1       -0.3912
      3 O          11.9093   -1.1406    0.0000 O.3     1  UNL1       -0.3944
      4 O           7.7331   -1.8322    0.0000 O.3     1  UNL1       -0.3405
      5 O           9.4651   -3.8322    0.0000 O.3     1  UNL1       -0.3841
      6 O           7.7331   -4.8322    0.0000 O.3     1  UNL1       -0.3400
      7 O           6.0010   -3.8322    0.0000 O.3     1  UNL1       -0.3401
      8 O           6.0010   -0.8323    0.0000 O.3     1  UNL1       -0.3924
      9 O           9.4651   -4.8322    0.0000 O.3     1  UNL1       -0.3405
     10 O           5.1350   -2.3322    0.0000 O.3     1  UNL1       -0.3405
     11 O           7.7331   -6.8322    0.0000 O.3     1  UNL1       -0.3841
     12 O           4.2690   -4.8322    0.0000 O.3     1  UNL1       -0.3841
     13 O           9.4651   -7.8322    0.0000 O.3     1  UNL1       -0.3864
     14 O           2.5369   -3.8322    0.0000 O.3     1  UNL1       -0.3864
     15 O          11.1972   -6.8322    0.0000 O.3     1  UNL1       -0.3865
     16 O           2.5369   -1.8322    0.0000 O.3     1  UNL1       -0.3865
     17 O          11.1972   -3.8322    0.0000 O.3     1  UNL1       -0.3924
     18 O           3.4030   -0.3323    0.0000 O.3     1  UNL1       -0.3924
     19 C          10.3662    2.8680    0.0000 C.3     1  UNL1       -0.0194
     20 C           9.5021    2.3646    0.0000 C.3     1  UNL1       -0.0257
     21 C           9.4901    1.3231    0.0000 C.3     1  UNL1       -0.0249
     22 C          10.3623    3.8680    0.0000 C.3     1  UNL1       -0.0051
     23 C          10.3901    0.7988    0.0000 C.3     1  UNL1       -0.0255
     24 C          11.2781    2.3646    0.0000 C.3     1  UNL1       -0.0463
     25 C           9.4944    4.3646    0.0000 C.2     1  UNL1       -0.0633
     26 C          10.4027   -0.2861    0.0000 C.3     1  UNL1        0.0206
     27 C          11.2902    1.3231    0.0000 C.3     1  UNL1       -0.0485
     28 C           9.4743    5.4061    0.0000 C.3     1  UNL1       -0.0111
     29 C          10.3703    5.9373    0.0000 C.3     1  UNL1        0.0005
     30 C           8.6342    2.8613    0.0000 C.3     1  UNL1       -0.0306
     31 C          11.2704    4.3783    0.0000 C.3     1  UNL1       -0.0428
     32 C           8.5402    0.7988    0.0000 C.3     1  UNL1       -0.0447
     33 C          11.2744    5.4199    0.0000 C.3     1  UNL1       -0.0439
     34 C          11.3503    3.0454    0.0000 C.3     1  UNL1       -0.0585
     35 C           9.4651   -0.8323    0.0000 C.3     1  UNL1        0.0695
     36 C           8.6303    3.8613    0.0000 C.2     1  UNL1       -0.0836
     37 C           8.6260    1.8264    0.0000 C.3     1  UNL1       -0.0590
     38 C           8.5276   -0.2861    0.0000 C.3     1  UNL1       -0.0254
     39 C          11.3478    3.6981    0.0000 C.3     1  UNL1       -0.0553
     40 C           8.5204    5.9230    0.0000 C.3     1  UNL1       -0.0406
     41 C          10.3745    7.0222    0.0000 C.3     1  UNL1        0.0616
     42 C           8.4995    7.0078    0.0000 C.3     1  UNL1       -0.0320
     43 C           9.4328    7.5611    0.0000 C.3     1  UNL1       -0.0211
     44 C          11.4026   -0.2784    0.0000 C.3     1  UNL1        0.0522
     45 C          10.9093   -1.1483    0.0000 C.3     1  UNL1       -0.0548
     46 C          11.2305    6.4473    0.0000 C.3     1  UNL1       -0.0567
     47 C           7.9862    7.8660    0.0000 C.3     1  UNL1       -0.0597
     48 C           7.4996    6.9924    0.0000 C.3     1  UNL1       -0.0597
     49 C           8.5991   -2.3322    0.0000 C.3     1  UNL1        0.1882
     50 C           8.5991   -3.3322    0.0000 C.3     1  UNL1        0.1345
     51 C           7.7331   -3.8322    0.0000 C.3     1  UNL1        0.1209
     52 C           6.8671   -2.3322    0.0000 C.3     1  UNL1        0.1134
     53 C           6.8671   -3.3322    0.0000 C.3     1  UNL1        0.1188
     54 C           6.0010   -1.8322    0.0000 C.3     1  UNL1        0.0730
     55 C           8.5991   -5.3322    0.0000 C.3     1  UNL1        0.1884
     56 C           5.1350   -3.3322    0.0000 C.3     1  UNL1        0.1884
     57 C           8.5991   -6.3322    0.0000 C.3     1  UNL1        0.1341
     58 C           4.2690   -3.8322    0.0000 C.3     1  UNL1        0.1341
     59 C           9.4651   -6.8322    0.0000 C.3     1  UNL1        0.1141
     60 C          10.3312   -5.3322    0.0000 C.3     1  UNL1        0.1130
     61 C           3.4030   -3.3322    0.0000 C.3     1  UNL1        0.1141
     62 C          10.3312   -6.3322    0.0000 C.3     1  UNL1        0.1119
     63 C           4.2690   -1.8322    0.0000 C.3     1  UNL1        0.1130
     64 C           3.4030   -2.3322    0.0000 C.3     1  UNL1        0.1119
     65 C          11.1972   -4.8322    0.0000 C.3     1  UNL1        0.0730
     66 C           4.2690   -0.8323    0.0000 C.3     1  UNL1        0.0730
     67 H          10.0378    2.0526    0.0000 H       1  UNL1        0.0315
     68 H          10.9294    0.4929    0.0000 H       1  UNL1        0.0313
     69 H          11.8902    2.2656    0.0000 H       1  UNL1        0.0271
     70 H          11.4804    2.9507    0.0000 H       1  UNL1        0.0271
     71 H          11.5060    0.7418    0.0000 H       1  UNL1        0.0268
     72 H          11.8998    1.4362    0.0000 H       1  UNL1        0.0268
     73 H           8.9447    5.0837    0.0000 H       1  UNL1        0.0352
     74 H           8.0232    2.9666    0.0000 H       1  UNL1        0.0310
     75 H           8.4244    2.2779    0.0000 H       1  UNL1        0.0310
     76 H          11.4772    3.7938    0.0000 H       1  UNL1        0.0274
     77 H          11.8816    4.4820    0.0000 H       1  UNL1        0.0274
     78 H           8.3379    1.3848    0.0000 H       1  UNL1        0.0271
     79 H           7.9281    0.6998    0.0000 H       1  UNL1        0.0271
     80 H          11.8848    5.3115    0.0000 H       1  UNL1        0.0272
     81 H          11.4857    6.0028    0.0000 H       1  UNL1        0.0272
     82 H          11.4603    2.4352    0.0000 H       1  UNL1        0.0235
     83 H          11.9605    3.1554    0.0000 H       1  UNL1        0.0235
     84 H          11.2403    3.6556    0.0000 H       1  UNL1        0.0235
     85 H          10.0027   -1.1412    0.0000 H       1  UNL1        0.0603
     86 H           8.0922    4.1692    0.0000 H       1  UNL1        0.0572
     87 H           8.9380    2.3621    0.0000 H       1  UNL1        0.0235
     88 H           8.0902    2.1385    0.0000 H       1  UNL1        0.0235
     89 H           8.3139    1.2907    0.0000 H       1  UNL1        0.0235
     90 H           7.9180   -0.1730    0.0000 H       1  UNL1        0.0290
     91 H           8.3118   -0.8674    0.0000 H       1  UNL1        0.0290
     92 H          11.2425    3.0871    0.0000 H       1  UNL1        0.0238
     93 H          11.9588    3.5928    0.0000 H       1  UNL1        0.0238
     94 H          11.4531    4.3091    0.0000 H       1  UNL1        0.0238
     95 H           7.9076    6.0173    0.0000 H       1  UNL1        0.0276
     96 H           8.3226    5.3354    0.0000 H       1  UNL1        0.0276
     97 H          10.3733    7.6422    0.0000 H       1  UNL1        0.0599
     98 H           9.8282    8.0386    0.0000 H       1  UNL1        0.0295
     99 H           9.0300    8.0325    0.0000 H       1  UNL1        0.0295
    100 H          11.9836   -0.0619    0.0000 H       1  UNL1        0.0563
    101 H          11.2903    0.3313    0.0000 H       1  UNL1        0.0563
    102 H          10.3748   -1.4624    0.0000 H       1  UNL1        0.0237
    103 H          11.2235   -1.6828    0.0000 H       1  UNL1        0.0237
    104 H          11.4439   -0.8342    0.0000 H       1  UNL1        0.0237
    105 H          11.5467    5.9139    0.0000 H       1  UNL1        0.0236
    106 H          11.7638    6.7634    0.0000 H       1  UNL1        0.0236
    107 H          10.9143    6.9806    0.0000 H       1  UNL1        0.0236
    108 H           7.4900    7.6123    0.0000 H       1  UNL1        0.0235
    109 H           8.5183    8.1842    0.0000 H       1  UNL1        0.0235
    110 H           7.6680    8.3981    0.0000 H       1  UNL1        0.0235
    111 H           6.8797    6.9828    0.0000 H       1  UNL1        0.0235
    112 H           7.5092    6.3725    0.0000 H       1  UNL1        0.0235
    113 H           7.4541    7.5478    0.0000 H       1  UNL1        0.0235
    114 H          11.2405    8.1422    0.0000 H       1  UNL1        0.2098
    115 H           8.5991   -1.7122    0.0000 H       1  UNL1        0.0937
    116 H          12.5293   -1.1358    0.0000 H       1  UNL1        0.2094
    117 H           8.5991   -3.9522    0.0000 H       1  UNL1        0.0671
    118 H           7.1962   -4.1422    0.0000 H       1  UNL1        0.0651
    119 H           6.8671   -1.7122    0.0000 H       1  UNL1        0.0647
    120 H           6.3301   -3.0222    0.0000 H       1  UNL1        0.0651
    121 H          10.0021   -3.5222    0.0000 H       1  UNL1        0.2101
    122 H           5.3905   -1.7246    0.0000 H       1  UNL1        0.0584
    123 H           5.7890   -2.4149    0.0000 H       1  UNL1        0.0584
    124 H           8.5991   -4.7122    0.0000 H       1  UNL1        0.0938
    125 H           5.1350   -3.9522    0.0000 H       1  UNL1        0.0938
    126 H           5.4641   -0.5223    0.0000 H       1  UNL1        0.2095
    127 H           8.5991   -6.9522    0.0000 H       1  UNL1        0.0671
    128 H           3.7320   -4.1422    0.0000 H       1  UNL1        0.0671
    129 H           8.9282   -7.1422    0.0000 H       1  UNL1        0.0648
    130 H          10.3312   -4.7122    0.0000 H       1  UNL1        0.0647
    131 H           2.8660   -3.0222    0.0000 H       1  UNL1        0.0648
    132 H          10.3312   -6.9522    0.0000 H       1  UNL1        0.0647
    133 H           4.8059   -1.5223    0.0000 H       1  UNL1        0.0647
    134 H           3.4030   -1.7122    0.0000 H       1  UNL1        0.0647
    135 H           7.7331   -7.4522    0.0000 H       1  UNL1        0.2101
    136 H           3.7320   -5.1422    0.0000 H       1  UNL1        0.2101
    137 H          11.4092   -5.4149    0.0000 H       1  UNL1        0.0584
    138 H          11.8078   -4.7246    0.0000 H       1  UNL1        0.0584
    139 H          10.0021   -8.1422    0.0000 H       1  UNL1        0.2100
    140 H           4.8796   -0.9399    0.0000 H       1  UNL1        0.0584
    141 H           4.4810   -0.2496    0.0000 H       1  UNL1        0.0584
    142 H           2.0000   -3.5222    0.0000 H       1  UNL1        0.2100
    143 H          11.7341   -6.5222    0.0000 H       1  UNL1        0.2100
    144 H           2.0000   -2.1423    0.0000 H       1  UNL1        0.2100
    145 H          11.7341   -3.5222    0.0000 H       1  UNL1        0.2095
    146 H           3.4030    0.2877    0.0000 H       1  UNL1        0.2095
@<TRIPOS>BOND
     1     1    35    1
     2     1    49    1
     3     2    41    1
     4     2   114    1
     5     3    44    1
     6     3   116    1
     7     4    49    1
     8     4    52    1
     9     5    50    1
    10     5   121    1
    11     6    51    1
    12     6    55    1
    13     7    53    1
    14     7    56    1
    15     8    54    1
    16     8   126    1
    17     9    55    1
    18     9    60    1
    19    10    56    1
    20    10    63    1
    21    11    57    1
    22    11   135    1
    23    12    58    1
    24    12   136    1
    25    13    59    1
    26    13   139    1
    27    14    61    1
    28    14   142    1
    29    15    62    1
    30    15   143    1
    31    16    64    1
    32    16   144    1
    33    17    65    1
    34    17   145    1
    35    18    66    1
    36    18   146    1
    37    19    20    1
    38    19    22    1
    39    19    24    1
    40    19    34    1
    41    20    21    1
    42    20    30    1
    43    20    67    1
    44    21    23    1
    45    21    32    1
    46    21    37    1
    47    22    25    1
    48    22    31    1
    49    22    39    1
    50    23    26    1
    51    23    27    1
    52    23    68    1
    53    24    27    1
    54    24    69    1
    55    24    70    1
    56    25    28    1
    57    25    36    2
    58    26    35    1
    59    26    44    1
    60    26    45    1
    61    27    71    1
    62    27    72    1
    63    28    29    1
    64    28    40    1
    65    28    73    1
    66    29    33    1
    67    29    41    1
    68    29    46    1
    69    30    36    1
    70    30    74    1
    71    30    75    1
    72    31    33    1
    73    31    76    1
    74    31    77    1
    75    32    38    1
    76    32    78    1
    77    32    79    1
    78    33    80    1
    79    33    81    1
    80    34    82    1
    81    34    83    1
    82    34    84    1
    83    35    38    1
    84    35    85    1
    85    36    86    1
    86    37    87    1
    87    37    88    1
    88    37    89    1
    89    38    90    1
    90    38    91    1
    91    39    92    1
    92    39    93    1
    93    39    94    1
    94    40    42    1
    95    40    95    1
    96    40    96    1
    97    41    43    1
    98    41    97    1
    99    42    43    1
   100    42    47    1
   101    42    48    1
   102    43    98    1
   103    43    99    1
   104    44   100    1
   105    44   101    1
   106    45   102    1
   107    45   103    1
   108    45   104    1
   109    46   105    1
   110    46   106    1
   111    46   107    1
   112    47   109    1
   113    47   110    1
   114    47   113    1
   115    48   108    1
   116    48   111    1
   117    48   112    1
   118    49    50    1
   119    49   115    1
   120    50    51    1
   121    50   117    1
   122    51    53    1
   123    51   118    1
   124    52    53    1
   125    52    54    1
   126    52   119    1
   127    53   120    1
   128    54   122    1
   129    54   123    1
   130    55    57    1
   131    55   124    1
   132    56    58    1
   133    56   125    1
   134    57    59    1
   135    57   127    1
   136    58    61    1
   137    58   128    1
   138    59    62    1
   139    59   129    1
   140    60    62    1
   141    60    65    1
   142    60   130    1
   143    61    64    1
   144    61   131    1
   145    62   132    1
   146    63    64    1
   147    63    66    1
   148    63   133    1
   149    64   134    1
   150    65   137    1
   151    65   138    1
   152    66   140    1
   153    66   141    1
