@<TRIPOS>MOLECULE
IMPHY016427
 17 16 0 0 0
SMALL
GASTEIGER

@<TRIPOS>ATOM
      1 O           6.3301   -0.0600    0.0000 O.2     1  UNL1       -0.3007
      2 C           2.8660   -0.0600    0.0000 C.2     1  UNL1       -0.0792
      3 C           3.7320    0.4400    0.0000 C.2     1  UNL1       -0.0785
      4 C           4.5981   -0.0600    0.0000 C.3     1  UNL1        0.0212
      5 C           2.0000    0.4400    0.0000 C.3     1  UNL1       -0.0440
      6 C           2.8660   -1.0600    0.0000 C.3     1  UNL1       -0.0440
      7 C           5.4641    0.4400    0.0000 C.2     1  UNL1        0.1240
      8 H           3.7320    1.0600    0.0000 H       1  UNL1        0.0576
      9 H           4.1996   -0.5349    0.0000 H       1  UNL1        0.0381
     10 H           4.9966   -0.5349    0.0000 H       1  UNL1        0.0381
     11 H           2.3100    0.9769    0.0000 H       1  UNL1        0.0274
     12 H           1.4631    0.7500    0.0000 H       1  UNL1        0.0274
     13 H           1.6900   -0.0969    0.0000 H       1  UNL1        0.0274
     14 H           2.2460   -1.0600    0.0000 H       1  UNL1        0.0274
     15 H           2.8660   -1.6800    0.0000 H       1  UNL1        0.0274
     16 H           3.4860   -1.0600    0.0000 H       1  UNL1        0.0274
     17 H           5.4641    1.0600    0.0000 H       1  UNL1        0.1029
@<TRIPOS>BOND
     1     1     7    2
     2     2     3    2
     3     2     5    1
     4     2     6    1
     5     3     4    1
     6     3     8    1
     7     4     7    1
     8     4     9    1
     9     4    10    1
    10     5    11    1
    11     5    12    1
    12     5    13    1
    13     6    14    1
    14     6    15    1
    15     6    16    1
    16     7    17    1
