@<TRIPOS>MOLECULE
IMPHY014447
 46 47 0 0 0
SMALL
GASTEIGER

@<TRIPOS>ATOM
      1 O           2.8660    0.0209    0.0000 O.2     1  UNL1       -0.2706
      2 O           5.1184    2.9717    0.0000 O.2     1  UNL1       -0.2755
      3 N           4.5981    0.0209    0.0000 N.am    1  UNL1       -0.2795
      4 N           3.9595    1.6846    0.0000 N.am    1  UNL1       -0.2966
      5 C           4.7026    1.0154    0.0000 C.3     1  UNL1        0.0924
      6 C           5.6808    1.2233    0.0000 C.3     1  UNL1       -0.0162
      7 C           6.1808    0.3573    0.0000 C.3     1  UNL1       -0.0339
      8 C           5.5116   -0.3858    0.0000 C.3     1  UNL1        0.0168
      9 C           3.7320   -0.4791    0.0000 C.2     1  UNL1        0.2408
     10 C           3.4242    3.3318    0.0000 C.3     1  UNL1        0.0325
     11 C           4.1674    2.6627    0.0000 C.2     1  UNL1        0.2172
     12 C           3.6321    4.3100    0.0000 C.3     1  UNL1       -0.0450
     13 C           2.4732    3.0228    0.0000 C.3     1  UNL1       -0.0541
     14 C           3.7320   -1.4791    0.0000 C.2     1  UNL1        0.0009
     15 C           2.8890    4.9791    0.0000 C.3     1  UNL1       -0.0646
     16 C           2.8660   -1.9791    0.0000 C.2     1  UNL1       -0.0497
     17 C           2.8660   -2.9791    0.0000 C.ar    1  UNL1       -0.0249
     18 C           2.0000   -3.4791    0.0000 C.ar    1  UNL1       -0.0546
     19 C           3.7320   -3.4791    0.0000 C.ar    1  UNL1       -0.0546
     20 C           2.0000   -4.4791    0.0000 C.ar    1  UNL1       -0.0612
     21 C           3.7320   -4.4791    0.0000 C.ar    1  UNL1       -0.0612
     22 C           2.8660   -4.9791    0.0000 C.ar    1  UNL1       -0.0617
     23 H           4.8631    1.6143    0.0000 H       1  UNL1        0.0709
     24 H           6.2472    1.4755    0.0000 H       1  UNL1        0.0300
     25 H           5.4892    1.8130    0.0000 H       1  UNL1        0.0300
     26 H           6.5956   -0.1034    0.0000 H       1  UNL1        0.0281
     27 H           6.6823    0.7217    0.0000 H       1  UNL1        0.0281
     28 H           5.2016   -0.9228    0.0000 H       1  UNL1        0.0465
     29 H           6.0132   -0.7503    0.0000 H       1  UNL1        0.0465
     30 H           3.3698    1.4930    0.0000 H       1  UNL1        0.1505
     31 H           3.2953    2.7254    0.0000 H       1  UNL1        0.0391
     32 H           4.2070    4.0777    0.0000 H       1  UNL1        0.0270
     33 H           3.9607    4.8358    0.0000 H       1  UNL1        0.0270
     34 H           2.2816    3.6125    0.0000 H       1  UNL1        0.0237
     35 H           1.8835    2.8312    0.0000 H       1  UNL1        0.0237
     36 H           2.6648    2.4332    0.0000 H       1  UNL1        0.0237
     37 H           4.2690   -1.7891    0.0000 H       1  UNL1        0.0670
     38 H           3.3038    5.4398    0.0000 H       1  UNL1        0.0230
     39 H           2.4282    5.3940    0.0000 H       1  UNL1        0.0230
     40 H           2.4741    4.5184    0.0000 H       1  UNL1        0.0230
     41 H           2.3291   -1.6691    0.0000 H       1  UNL1        0.0625
     42 H           1.4631   -3.1691    0.0000 H       1  UNL1        0.0623
     43 H           4.2690   -3.1691    0.0000 H       1  UNL1        0.0623
     44 H           1.4631   -4.7891    0.0000 H       1  UNL1        0.0618
     45 H           4.2690   -4.7891    0.0000 H       1  UNL1        0.0618
     46 H           2.8660   -5.5991    0.0000 H       1  UNL1        0.0618
@<TRIPOS>BOND
     1     1     9    2
     2     2    11    2
     3     3     5    1
     4     3     8    1
     5     3     9   am
     6     4     5    1
     7     4    11   am
     8     4    30    1
     9     5     6    1
    10     5    23    1
    11     6     7    1
    12     6    24    1
    13     6    25    1
    14     7     8    1
    15     7    26    1
    16     7    27    1
    17     8    28    1
    18     8    29    1
    19     9    14    1
    20    10    11    1
    21    10    12    1
    22    10    13    1
    23    10    31    1
    24    12    15    1
    25    12    32    1
    26    12    33    1
    27    13    34    1
    28    13    35    1
    29    13    36    1
    30    14    16    2
    31    14    37    1
    32    15    38    1
    33    15    39    1
    34    15    40    1
    35    16    17    1
    36    16    41    1
    37    17    18   ar
    38    17    19   ar
    39    18    20   ar
    40    18    42    1
    41    19    21   ar
    42    19    43    1
    43    20    22   ar
    44    20    44    1
    45    21    22   ar
    46    21    45    1
    47    22    46    1
