@<TRIPOS>MOLECULE
IMPHY006253
 156 160 0 0 0
SMALL
GASTEIGER

@<TRIPOS>ATOM
      1 O          18.9223    8.0728    0.0000 O.3     1  UNL1       -0.3367
      2 O          14.3209    9.2242    0.0000 O.3     1  UNL1       -0.3420
      3 O          23.5524    2.2991    0.0000 O.3     1  UNL1       -0.3377
      4 O          21.6741    4.2543    0.0000 O.3     1  UNL1       -0.3405
      5 O          11.0956    8.1116    0.0000 O.3     1  UNL1       -0.3391
      6 O           6.5857    7.6420    0.0000 O.3     1  UNL1       -0.4547
      7 O          12.6537   10.7305    0.0000 O.3     1  UNL1       -0.4521
      8 O          22.9267   -3.7189    0.0000 O.3     1  UNL1       -0.3431
      9 O           9.3636    8.1116    0.0000 O.3     1  UNL1       -0.3394
     10 O          22.5431   -7.1476    0.0000 O.3     1  UNL1       -0.3454
     11 O          19.7972    6.5947    0.0000 O.3     1  UNL1       -0.3864
     12 O          19.0716    4.7310    0.0000 O.3     1  UNL1       -0.3865
     13 O          22.6871   -0.2766    0.0000 O.3     1  UNL1       -0.3864
     14 O          21.6354   -1.4725    0.0000 O.3     1  UNL1       -0.3866
     15 O          11.0956    6.1116    0.0000 O.3     1  UNL1       -0.3841
     16 O           7.6315    6.1116    0.0000 O.3     1  UNL1       -0.4527
     17 O           9.3636    5.1116    0.0000 O.3     1  UNL1       -0.3853
     18 O          20.9484    2.3906    0.0000 O.3     1  UNL1       -0.3924
     19 O           7.6315    9.1116    0.0000 O.3     1  UNL1       -0.3923
     20 O          14.3847   10.7909    0.0000 O.2     1  UNL1       -0.2505
     21 O           3.4544    5.9731    0.0000 O.2     1  UNL1       -0.2508
     22 O           8.4976    4.6116    0.0000 O.2     1  UNL1       -0.2453
     23 C          21.4113    5.9663    0.0000 C.3     1  UNL1        0.1407
     24 C          11.0956    9.1116    0.0000 C.3     1  UNL1        0.1281
     25 C           9.4820    9.1398    0.0000 C.3     1  UNL1        0.1729
     26 C          12.6886    9.7311    0.0000 C.3     1  UNL1        0.1926
     27 C          15.9286    9.3649    0.0000 C.3     1  UNL1        0.2008
     28 C          22.0369    5.1862    0.0000 C.3     1  UNL1        0.1889
     29 C          20.4228    5.8146    0.0000 C.3     1  UNL1        0.1144
     30 C          12.7092    9.1398    0.0000 C.3     1  UNL1        0.0888
     31 C          20.0600    4.8827    0.0000 C.3     1  UNL1        0.1119
     32 C          24.1633   -0.9038    0.0000 C.3     1  UNL1        0.1406
     33 C          20.6856    4.1026    0.0000 C.3     1  UNL1        0.1130
     34 C          23.2030   -1.1333    0.0000 C.3     1  UNL1        0.1143
     35 C          23.8169   -4.1460    0.0000 C.3     1  UNL1        0.1885
     36 C          10.2296    7.6116    0.0000 C.3     1  UNL1        0.1886
     37 C          22.5510   -1.8747    0.0000 C.3     1  UNL1        0.1095
     38 C          10.2296    6.6116    0.0000 C.3     1  UNL1        0.1352
     39 C          22.4461   -2.8564    0.0000 C.3     1  UNL1        0.0873
     40 C           9.3636    6.1116    0.0000 C.3     1  UNL1        0.1251
     41 C          12.7441    8.1404    0.0000 C.3     1  UNL1       -0.0360
     42 C           8.4976    6.6116    0.0000 C.3     1  UNL1        0.1598
     43 C           8.4976    7.6116    0.0000 C.3     1  UNL1        0.1240
     44 C          20.3228    3.1707    0.0000 C.3     1  UNL1        0.0730
     45 C          20.4519   -9.6494    0.0000 C.3     1  UNL1        0.0618
     46 C          21.4662   -3.0561    0.0000 C.3     1  UNL1       -0.0361
     47 C          17.7239  -11.4353    0.0000 C.3     1  UNL1       -0.0265
     48 C          21.1166  -10.3965    0.0000 C.3     1  UNL1       -0.0265
     49 C           7.6315    8.1116    0.0000 C.3     1  UNL1        0.0741
     50 C          13.5017   11.2604    0.0000 C.2     1  UNL1        0.3105
     51 C           4.2498    5.3670    0.0000 C.2     1  UNL1        0.3075
     52 C          14.5945  -12.3513    0.0000 C.3     1  UNL1       -0.0507
     53 C          13.4668   12.2598    0.0000 C.3     1  UNL1        0.0534
     54 C           2.6759    2.5114    0.0000 C.3     1  UNL1        0.0450
     55 C          20.8020  -11.3457    0.0000 C.3     1  UNL1       -0.0507
     56 C          11.3340  -12.3181    0.0000 C.3     1  UNL1       -0.0530
     57 C           2.0000   -0.6785    0.0000 C.3     1  UNL1       -0.0430
     58 C           8.2239  -11.3387    0.0000 C.3     1  UNL1       -0.0531
     59 C           2.2804   -3.9271    0.0000 C.3     1  UNL1       -0.0526
     60 C          14.3149   12.7897    0.0000 C.3     1  UNL1       -0.0432
     61 C          21.4667  -12.0928    0.0000 C.3     1  UNL1       -0.0532
     62 C           5.5328   -9.4977    0.0000 C.3     1  UNL1       -0.0531
     63 C           3.4929   -6.9539    0.0000 C.3     1  UNL1       -0.0530
     64 C          12.5839   12.7292    0.0000 C.3     1  UNL1       -0.0523
     65 C           7.6315    5.1116    0.0000 C.2     1  UNL1        0.3350
     66 C          21.1520  -13.0420    0.0000 C.3     1  UNL1       -0.0559
     67 C          14.2800   13.7891    0.0000 C.3     1  UNL1       -0.0645
     68 C           6.7655    4.6116    0.0000 C.2     1  UNL1        0.0293
     69 C          21.8167  -13.7891    0.0000 C.3     1  UNL1       -0.0653
     70 C           5.8995    5.1116    0.0000 C.3     1  UNL1       -0.0333
     71 C           6.7655    3.6116    0.0000 C.2     1  UNL1       -0.0774
     72 C           5.8995    3.1116    0.0000 C.3     1  UNL1       -0.0461
     73 H          21.8554    6.3989    0.0000 H       1  UNL1        0.0675
     74 H          11.5378    8.6770    0.0000 H       1  UNL1        0.0661
     75 H           9.2812    9.7263    0.0000 H       1  UNL1        0.0801
     76 H          13.1437   10.1521    0.0000 H       1  UNL1        0.0824
     77 H          16.0880    9.9640    0.0000 H       1  UNL1        0.0950
     78 H          22.0716    4.5671    0.0000 H       1  UNL1        0.0938
     79 H          19.8100    5.7205    0.0000 H       1  UNL1        0.0648
     80 H          13.1664    8.7209    0.0000 H       1  UNL1        0.0621
     81 H          19.8351    4.3050    0.0000 H       1  UNL1        0.0647
     82 H          24.7828   -0.8784    0.0000 H       1  UNL1        0.0675
     83 H          21.0735    3.6189    0.0000 H       1  UNL1        0.0647
     84 H          23.4428   -0.5615    0.0000 H       1  UNL1        0.0648
     85 H          23.2369   -4.3650    0.0000 H       1  UNL1        0.0938
     86 H          10.2296    8.2316    0.0000 H       1  UNL1        0.0938
     87 H          22.4170   -1.2694    0.0000 H       1  UNL1        0.0646
     88 H          10.2296    5.9916    0.0000 H       1  UNL1        0.0671
     89 H          22.1872   -3.4198    0.0000 H       1  UNL1        0.0621
     90 H           8.8266    5.8016    0.0000 H       1  UNL1        0.0659
     91 H          12.1245    8.1187    0.0000 H       1  UNL1        0.0255
     92 H          12.7658    7.5207    0.0000 H       1  UNL1        0.0255
     93 H          13.3638    8.1620    0.0000 H       1  UNL1        0.0255
     94 H           7.9606    6.9216    0.0000 H       1  UNL1        0.0788
     95 H           8.4976    8.2316    0.0000 H       1  UNL1        0.0658
     96 H          19.7929    3.4926    0.0000 H       1  UNL1        0.0584
     97 H          19.9138    2.7048    0.0000 H       1  UNL1        0.0584
     98 H          21.0719   -9.6398    0.0000 H       1  UNL1        0.0597
     99 H          20.0222    7.1725    0.0000 H       1  UNL1        0.2100
    100 H          18.8467    4.1532    0.0000 H       1  UNL1        0.2100
    101 H          21.3424   -2.4486    0.0000 H       1  UNL1        0.0255
    102 H          20.8587   -3.1799    0.0000 H       1  UNL1        0.0255
    103 H          21.5900   -3.6636    0.0000 H       1  UNL1        0.0255
    104 H          17.6370  -12.0492    0.0000 H       1  UNL1        0.0290
    105 H          17.4642  -10.8723    0.0000 H       1  UNL1        0.0290
    106 H          21.6623  -10.6908    0.0000 H       1  UNL1        0.0290
    107 H          21.5012   -9.9102    0.0000 H       1  UNL1        0.0290
    108 H           7.0209    8.2192    0.0000 H       1  UNL1        0.0584
    109 H           7.4195    7.5290    0.0000 H       1  UNL1        0.0584
    110 H          22.9872    0.2659    0.0000 H       1  UNL1        0.2100
    111 H          21.1356   -1.8395    0.0000 H       1  UNL1        0.2100
    112 H          14.3330  -12.9134    0.0000 H       1  UNL1        0.0266
    113 H          14.5097  -11.7371    0.0000 H       1  UNL1        0.0266
    114 H          11.6326    6.4216    0.0000 H       1  UNL1        0.2101
    115 H          13.4452   12.8794    0.0000 H       1  UNL1        0.0410
    116 H           9.9005    4.8016    0.0000 H       1  UNL1        0.2101
    117 H           2.3048    3.0080    0.0000 H       1  UNL1        0.0377
    118 H           3.2570    2.2951    0.0000 H       1  UNL1        0.0377
    119 H          20.2563  -11.0513    0.0000 H       1  UNL1        0.0266
    120 H          20.4174  -11.8320    0.0000 H       1  UNL1        0.0266
    121 H          10.9204  -12.7800    0.0000 H       1  UNL1        0.0265
    122 H          11.4313  -11.7058    0.0000 H       1  UNL1        0.0265
    123 H          20.7235    1.8128    0.0000 H       1  UNL1        0.2095
    124 H           1.5005   -0.3112    0.0000 H       1  UNL1        0.0270
    125 H           2.6188   -0.7165    0.0000 H       1  UNL1        0.0270
    126 H           7.6939  -11.6604    0.0000 H       1  UNL1        0.0265
    127 H           8.4950  -10.7811    0.0000 H       1  UNL1        0.0265
    128 H           1.6957   -3.7208    0.0000 H       1  UNL1        0.0265
    129 H           2.8836   -3.7836    0.0000 H       1  UNL1        0.0265
    130 H          14.5471   12.2148    0.0000 H       1  UNL1        0.0270
    131 H          14.9213   12.9186    0.0000 H       1  UNL1        0.0270
    132 H          22.0124  -12.3871    0.0000 H       1  UNL1        0.0265
    133 H          21.8513  -11.6065    0.0000 H       1  UNL1        0.0265
    134 H           4.9321   -9.6514    0.0000 H       1  UNL1        0.0265
    135 H           5.9542   -9.0429    0.0000 H       1  UNL1        0.0265
    136 H           2.8735   -6.9264    0.0000 H       1  UNL1        0.0265
    137 H           4.0283   -6.6413    0.0000 H       1  UNL1        0.0265
    138 H          12.8750   13.2767    0.0000 H       1  UNL1        0.0238
    139 H          12.0365   13.0203    0.0000 H       1  UNL1        0.0238
    140 H          12.2928   12.1818    0.0000 H       1  UNL1        0.0238
    141 H           7.0946    9.4216    0.0000 H       1  UNL1        0.2095
    142 H          20.6063  -12.7477    0.0000 H       1  UNL1        0.0263
    143 H          20.7674  -13.5283    0.0000 H       1  UNL1        0.0263
    144 H          14.8996   13.8107    0.0000 H       1  UNL1        0.0230
    145 H          14.2584   14.4087    0.0000 H       1  UNL1        0.0230
    146 H          13.6604   13.7674    0.0000 H       1  UNL1        0.0230
    147 H          21.3535  -14.2012    0.0000 H       1  UNL1        0.0230
    148 H          22.2288  -14.2523    0.0000 H       1  UNL1        0.0230
    149 H          22.2799  -13.3770    0.0000 H       1  UNL1        0.0230
    150 H           6.2095    5.6485    0.0000 H       1  UNL1        0.0280
    151 H           5.3625    5.4216    0.0000 H       1  UNL1        0.0280
    152 H           5.5895    4.5746    0.0000 H       1  UNL1        0.0280
    153 H           7.3024    3.3016    0.0000 H       1  UNL1        0.0574
    154 H           5.5895    3.6485    0.0000 H       1  UNL1        0.0272
    155 H           5.3625    2.8016    0.0000 H       1  UNL1        0.0272
    156 H           6.2095    2.5746    0.0000 H       1  UNL1        0.0272
@<TRIPOS>BOND
     1     1    23    1
     2     1    27    1
     3     2    27    1
     4     2    30    1
     5     3    28    1
     6     3    32    1
     7     4    28    1
     8     4    33    1
     9     5    24    1
    10     5    36    1
    11     6    25    1
    12     6    51    1
    13     7    26    1
    14     7    50    1
    15     8    35    1
    16     8    39    1
    17     9    36    1
    18     9    43    1
    19    10    35    1
    20    10    45    1
    21    11    29    1
    22    11    99    1
    23    12    31    1
    24    12   100    1
    25    13    34    1
    26    13   110    1
    27    14    37    1
    28    14   111    1
    29    15    38    1
    30    15   114    1
    31    16    42    1
    32    16    65    1
    33    17    40    1
    34    17   116    1
    35    18    44    1
    36    18   123    1
    37    19    49    1
    38    19   141    1
    39    20    50    2
    40    21    51    2
    41    22    65    2
    42    23    28    1
    43    23    29    1
    44    23    73    1
    45    24    25    1
    46    24    30    1
    47    24    74    1
    48    25    26    1
    49    25    75    1
    50    26    27    1
    51    26    76    1
    52    27    77    1
    53    28    78    1
    54    29    31    1
    55    29    79    1
    56    30    41    1
    57    30    80    1
    58    31    33    1
    59    31    81    1
    60    32    34    1
    61    32    35    1
    62    32    82    1
    63    33    44    1
    64    33    83    1
    65    34    37    1
    66    34    84    1
    67    35    85    1
    68    36    38    1
    69    36    86    1
    70    37    39    1
    71    37    87    1
    72    38    40    1
    73    38    88    1
    74    39    46    1
    75    39    89    1
    76    40    42    1
    77    40    90    1
    78    41    91    1
    79    41    92    1
    80    41    93    1
    81    42    43    1
    82    42    94    1
    83    43    49    1
    84    43    95    1
    85    44    96    1
    86    44    97    1
    87    45    47    1
    88    45    48    1
    89    45    98    1
    90    46   101    1
    91    46   102    1
    92    46   103    1
    93    47    52    1
    94    47   104    1
    95    47   105    1
    96    48    55    1
    97    48   106    1
    98    48   107    1
    99    49   108    1
   100    49   109    1
   101    50    53    1
   102    51    54    1
   103    52    56    1
   104    52   112    1
   105    52   113    1
   106    53    60    1
   107    53    64    1
   108    53   115    1
   109    54    57    1
   110    54   117    1
   111    54   118    1
   112    55    61    1
   113    55   119    1
   114    55   120    1
   115    56    58    1
   116    56   121    1
   117    56   122    1
   118    57    59    1
   119    57   124    1
   120    57   125    1
   121    58    62    1
   122    58   126    1
   123    58   127    1
   124    59    63    1
   125    59   128    1
   126    59   129    1
   127    60    67    1
   128    60   130    1
   129    60   131    1
   130    61    66    1
   131    61   132    1
   132    61   133    1
   133    62    63    1
   134    62   134    1
   135    62   135    1
   136    63   136    1
   137    63   137    1
   138    64   138    1
   139    64   139    1
   140    64   140    1
   141    65    68    1
   142    66    69    1
   143    66   142    1
   144    66   143    1
   145    67   144    1
   146    67   145    1
   147    67   146    1
   148    68    70    1
   149    68    71    2
   150    69   147    1
   151    69   148    1
   152    69   149    1
   153    70   150    1
   154    70   151    1
   155    70   152    1
   156    71    72    1
   157    71   153    1
   158    72   154    1
   159    72   155    1
   160    72   156    1
