@<TRIPOS>MOLECULE
IMPHY004151
 31 30 0 0 0
SMALL
GASTEIGER

@<TRIPOS>ATOM
      1 O           3.7320    0.4400    0.0000 O.3     1  UNL1       -0.4627
      2 O           2.0000    0.4400    0.0000 O.2     1  UNL1       -0.2546
      3 C           7.1962    0.4400    0.0000 C.3     1  UNL1       -0.0285
      4 C           8.0622   -0.0600    0.0000 C.3     1  UNL1       -0.0308
      5 C           6.3301   -0.0600    0.0000 C.2     1  UNL1       -0.0731
      6 C           8.9282    0.4400    0.0000 C.2     1  UNL1       -0.0850
      7 C           9.7942   -0.0600    0.0000 C.2     1  UNL1       -0.0796
      8 C           5.4641    0.4400    0.0000 C.2     1  UNL1       -0.0480
      9 C           6.3301   -1.0600    0.0000 C.3     1  UNL1       -0.0437
     10 C           4.5981   -0.0600    0.0000 C.3     1  UNL1        0.1107
     11 C          10.6603    0.4400    0.0000 C.3     1  UNL1       -0.0440
     12 C           9.7942   -1.0600    0.0000 C.3     1  UNL1       -0.0440
     13 C           2.8660   -0.0600    0.0000 C.2     1  UNL1        0.2945
     14 H           7.5947    0.9149    0.0000 H       1  UNL1        0.0313
     15 H           6.7976    0.9149    0.0000 H       1  UNL1        0.0313
     16 H           7.6636   -0.5349    0.0000 H       1  UNL1        0.0310
     17 H           8.4607   -0.5349    0.0000 H       1  UNL1        0.0310
     18 H           8.9282    1.0600    0.0000 H       1  UNL1        0.0572
     19 H           5.4641    1.0600    0.0000 H       1  UNL1        0.0605
     20 H           5.7101   -1.0600    0.0000 H       1  UNL1        0.0274
     21 H           6.3301   -1.6800    0.0000 H       1  UNL1        0.0274
     22 H           6.9501   -1.0600    0.0000 H       1  UNL1        0.0274
     23 H           4.1996   -0.5349    0.0000 H       1  UNL1        0.0743
     24 H           4.9966   -0.5349    0.0000 H       1  UNL1        0.0743
     25 H          10.9703   -0.0969    0.0000 H       1  UNL1        0.0274
     26 H          11.1972    0.7500    0.0000 H       1  UNL1        0.0274
     27 H          10.3503    0.9769    0.0000 H       1  UNL1        0.0274
     28 H           9.1742   -1.0600    0.0000 H       1  UNL1        0.0274
     29 H           9.7942   -1.6800    0.0000 H       1  UNL1        0.0274
     30 H          10.4142   -1.0600    0.0000 H       1  UNL1        0.0274
     31 H           2.8660   -0.6800    0.0000 H       1  UNL1        0.1512
@<TRIPOS>BOND
     1     1    10    1
     2     1    13    1
     3     2    13    2
     4     3     4    1
     5     3     5    1
     6     3    14    1
     7     3    15    1
     8     4     6    1
     9     4    16    1
    10     4    17    1
    11     5     8    2
    12     5     9    1
    13     6     7    2
    14     6    18    1
    15     7    11    1
    16     7    12    1
    17     8    10    1
    18     8    19    1
    19     9    20    1
    20     9    21    1
    21     9    22    1
    22    10    23    1
    23    10    24    1
    24    11    25    1
    25    11    26    1
    26    11    27    1
    27    12    28    1
    28    12    29    1
    29    12    30    1
    30    13    31    1
