@<TRIPOS>MOLECULE
IMPHY009192
 96 102 0 0 0
SMALL
GASTEIGER

@<TRIPOS>ATOM
      1 O           7.9694    5.4102    0.0000 O.3     1  UNL1       -0.3877
      2 O          11.5932    1.2798    0.0000 O.3     1  UNL1       -0.3414
      3 O           3.1244    4.0458    0.0000 O.3     1  UNL1       -0.4571
      4 O           8.5658    1.1745    0.0000 O.2     1  UNL1       -0.3001
      5 O           2.0000    5.4283    0.0000 O.2     1  UNL1       -0.2456
      6 O          10.7272   -0.2202    0.0000 O.3     1  UNL1       -0.3460
      7 O          13.3253    0.2798    0.0000 O.3     1  UNL1       -0.3841
      8 O          11.5932   -2.7202    0.0000 O.3     1  UNL1       -0.3405
      9 O          13.3253   -1.7202    0.0000 O.3     1  UNL1       -0.3864
     10 O           9.8612   -2.7202    0.0000 O.3     1  UNL1       -0.3405
     11 O          11.5932   -4.7202    0.0000 O.3     1  UNL1       -0.3841
     12 O           9.8612   -5.7202    0.0000 O.3     1  UNL1       -0.3864
     13 O           8.1291   -4.7202    0.0000 O.3     1  UNL1       -0.3865
     14 O           7.2631   -3.2202    0.0000 O.3     1  UNL1       -0.3924
     15 C           7.1053    4.9069    0.0000 C.3     1  UNL1        0.0751
     16 C           6.2412    4.4036    0.0000 C.3     1  UNL1        0.0036
     17 C           7.9733    4.4102    0.0000 C.3     1  UNL1       -0.0073
     18 C           7.9771    3.4102    0.0000 C.3     1  UNL1       -0.0197
     19 C           5.5016    5.0678    0.0000 C.3     1  UNL1       -0.0081
     20 C           6.2451    3.4036    0.0000 C.3     1  UNL1       -0.0442
     21 C           6.8924    5.8779    0.0000 C.3     1  UNL1       -0.0226
     22 C           8.8731    2.8790    0.0000 C.3     1  UNL1        0.0502
     23 C           7.1130    2.9069    0.0000 C.3     1  UNL1       -0.0481
     24 C           5.9032    5.9771    0.0000 C.3     1  UNL1       -0.0432
     25 C           8.8651    4.9483    0.0000 C.3     1  UNL1       -0.0436
     26 C           5.3771    3.9002    0.0000 C.3     1  UNL1       -0.0564
     27 C           9.7772    3.3964    0.0000 C.2     1  UNL1       -0.0578
     28 C           9.7732    4.4380    0.0000 C.3     1  UNL1       -0.0304
     29 C           8.8522    1.7942    0.0000 C.3     1  UNL1       -0.0343
     30 C           4.5239    4.8578    0.0000 C.2     1  UNL1       -0.0222
     31 C           8.2273    2.1155    0.0000 C.2     1  UNL1        0.1307
     32 C           9.7855    1.2409    0.0000 C.3     1  UNL1       -0.0217
     33 C          10.7230    2.8648    0.0000 C.2     1  UNL1       -0.0554
     34 C          10.7272    1.7798    0.0000 C.3     1  UNL1        0.0802
     35 C           4.1191    3.9434    0.0000 C.3     1  UNL1        0.1147
     36 C           3.7794    5.5254    0.0000 C.2     1  UNL1        0.0252
     37 C           2.9144    5.0235    0.0000 C.2     1  UNL1        0.3323
     38 C          11.5932    0.2798    0.0000 C.3     1  UNL1        0.1881
     39 C          12.4593   -0.2202    0.0000 C.3     1  UNL1        0.1341
     40 C          12.4593   -1.2202    0.0000 C.3     1  UNL1        0.1141
     41 C          11.5932   -1.7202    0.0000 C.3     1  UNL1        0.1134
     42 C          10.7272   -1.2202    0.0000 C.3     1  UNL1        0.0796
     43 C          10.7272   -3.2202    0.0000 C.3     1  UNL1        0.1884
     44 C          10.7272   -4.2202    0.0000 C.3     1  UNL1        0.1341
     45 C           9.8612   -4.7202    0.0000 C.3     1  UNL1        0.1141
     46 C           8.9952   -3.2202    0.0000 C.3     1  UNL1        0.1130
     47 C           8.9952   -4.2202    0.0000 C.3     1  UNL1        0.1119
     48 C           8.1291   -2.7202    0.0000 C.3     1  UNL1        0.0730
     49 H           8.7142    3.9938    0.0000 H       1  UNL1        0.0332
     50 H           7.9738    2.5602    0.0000 H       1  UNL1        0.0317
     51 H           5.1102    5.5486    0.0000 H       1  UNL1        0.0353
     52 H           5.6341    3.5089    0.0000 H       1  UNL1        0.0272
     53 H           6.0353    2.8201    0.0000 H       1  UNL1        0.0272
     54 H           7.5086    5.9463    0.0000 H       1  UNL1        0.0293
     55 H           6.8891    6.4979    0.0000 H       1  UNL1        0.0293
     56 H           6.7163    2.4304    0.0000 H       1  UNL1        0.0269
     57 H           7.5134    2.4335    0.0000 H       1  UNL1        0.0269
     58 H           6.0296    6.5841    0.0000 H       1  UNL1        0.0272
     59 H           5.3129    6.1666    0.0000 H       1  UNL1        0.0272
     60 H           9.2569    5.4289    0.0000 H       1  UNL1        0.0272
     61 H           8.4587    5.4166    0.0000 H       1  UNL1        0.0272
     62 H           5.0651    4.4360    0.0000 H       1  UNL1        0.0236
     63 H           4.8414    3.5882    0.0000 H       1  UNL1        0.0236
     64 H           5.6892    3.3645    0.0000 H       1  UNL1        0.0236
     65 H          10.3844    4.3342    0.0000 H       1  UNL1        0.0310
     66 H           9.9800    5.0225    0.0000 H       1  UNL1        0.0310
     67 H           8.2435    1.9121    0.0000 H       1  UNL1        0.0279
     68 H           8.6319    1.2147    0.0000 H       1  UNL1        0.0279
     69 H           7.9670    6.0302    0.0000 H       1  UNL1        0.2102
     70 H           7.6172    2.2256    0.0000 H       1  UNL1        0.1036
     71 H           9.3827    0.7696    0.0000 H       1  UNL1        0.0294
     72 H          10.1810    0.7634    0.0000 H       1  UNL1        0.0294
     73 H          11.2576    3.1789    0.0000 H       1  UNL1        0.0597
     74 H          10.7260    1.1598    0.0000 H       1  UNL1        0.0641
     75 H           3.9915    3.3367    0.0000 H       1  UNL1        0.0746
     76 H           4.7092    3.7531    0.0000 H       1  UNL1        0.0746
     77 H           3.8429    6.1421    0.0000 H       1  UNL1        0.0689
     78 H          12.1302    0.5898    0.0000 H       1  UNL1        0.0937
     79 H          12.9962   -0.5302    0.0000 H       1  UNL1        0.0671
     80 H          12.4593   -1.8402    0.0000 H       1  UNL1        0.0648
     81 H          11.0563   -2.0302    0.0000 H       1  UNL1        0.0647
     82 H          10.1166   -1.1126    0.0000 H       1  UNL1        0.0587
     83 H          10.5152   -1.8028    0.0000 H       1  UNL1        0.0587
     84 H          13.3253    0.8998    0.0000 H       1  UNL1        0.2101
     85 H          13.8622   -1.4102    0.0000 H       1  UNL1        0.2100
     86 H          10.7272   -2.6002    0.0000 H       1  UNL1        0.0938
     87 H          10.7272   -4.8402    0.0000 H       1  UNL1        0.0671
     88 H           9.3242   -5.0302    0.0000 H       1  UNL1        0.0648
     89 H           8.9952   -2.6002    0.0000 H       1  UNL1        0.0647
     90 H           8.4582   -3.9102    0.0000 H       1  UNL1        0.0647
     91 H           8.5277   -2.2453    0.0000 H       1  UNL1        0.0584
     92 H           7.7306   -2.2453    0.0000 H       1  UNL1        0.0584
     93 H          12.1302   -4.4102    0.0000 H       1  UNL1        0.2101
     94 H          10.3981   -6.0302    0.0000 H       1  UNL1        0.2100
     95 H           8.1291   -5.3402    0.0000 H       1  UNL1        0.2100
     96 H           6.7262   -2.9102    0.0000 H       1  UNL1        0.2095
@<TRIPOS>BOND
     1    15     1    1
     2     1    69    1
     3    34     2    1
     4    38     2    1
     5     3    35    1
     6     3    37    1
     7     4    31    2
     8     5    37    2
     9     6    38    1
    10     6    42    1
    11    39     7    1
    12     7    84    1
    13    41     8    1
    14    43     8    1
    15    40     9    1
    16     9    85    1
    17    10    43    1
    18    10    46    1
    19    44    11    1
    20    11    93    1
    21    45    12    1
    22    12    94    1
    23    47    13    1
    24    13    95    1
    25    14    48    1
    26    14    96    1
    27    15    16    1
    28    15    17    1
    29    15    21    1
    30    16    19    1
    31    16    20    1
    32    16    26    1
    33    17    18    1
    34    17    25    1
    35    17    49    1
    36    18    22    1
    37    18    23    1
    38    18    50    1
    39    19    24    1
    40    19    30    1
    41    19    51    1
    42    20    23    1
    43    20    52    1
    44    20    53    1
    45    21    24    1
    46    21    54    1
    47    21    55    1
    48    22    27    1
    49    22    29    1
    50    22    31    1
    51    23    56    1
    52    23    57    1
    53    24    58    1
    54    24    59    1
    55    25    28    1
    56    25    60    1
    57    25    61    1
    58    26    62    1
    59    26    63    1
    60    26    64    1
    61    27    28    1
    62    27    33    2
    63    28    65    1
    64    28    66    1
    65    29    32    1
    66    29    67    1
    67    29    68    1
    68    30    35    1
    69    30    36    2
    70    31    70    1
    71    32    34    1
    72    32    71    1
    73    32    72    1
    74    33    34    1
    75    33    73    1
    76    34    74    1
    77    35    75    1
    78    35    76    1
    79    36    37    1
    80    36    77    1
    81    38    39    1
    82    38    78    1
    83    39    40    1
    84    39    79    1
    85    40    41    1
    86    40    80    1
    87    41    42    1
    88    41    81    1
    89    42    82    1
    90    42    83    1
    91    43    44    1
    92    43    86    1
    93    44    45    1
    94    44    87    1
    95    45    47    1
    96    45    88    1
    97    46    47    1
    98    46    48    1
    99    46    89    1
   100    47    90    1
   101    48    91    1
   102    48    92    1
