@<TRIPOS>MOLECULE
IMPHY010074
 55 59 0 0 0
SMALL
GASTEIGER

@<TRIPOS>ATOM
      1 O           7.1504    1.2308    0.0000 O.3     1  UNL1       -0.4636
      2 O           4.2494    1.0122    0.0000 O.3     1  UNL1       -0.4674
      3 O           5.8265    1.7281    0.0000 O.2     1  UNL1       -0.2500
      4 O           8.1584    2.6394    0.0000 O.2     1  UNL1       -0.2512
      5 N           5.4068   -2.0203    0.0000 N.3     1  UNL1       -0.2903
      6 N           6.7907    0.3747    0.0000 N.2     1  UNL1       -0.2537
      7 C           7.2907   -1.1641    0.0000 C.3     1  UNL1        0.0580
      8 C           5.6579    0.0043    0.0000 C.3     1  UNL1        0.1228
      9 C           3.8297   -0.8256    0.0000 C.3     1  UNL1        0.0032
     10 C           5.5237   -0.9853    0.0000 C.3     1  UNL1        0.0506
     11 C           6.4817   -0.5763    0.0000 C.2     1  UNL1        0.0484
     12 C           4.7222   -0.4233    0.0000 C.3     1  UNL1       -0.0243
     13 C           7.1978   -2.2016    0.0000 C.3     1  UNL1       -0.0240
     14 C           6.2495   -2.6326    0.0000 C.3     1  UNL1        0.0010
     15 C           8.0997   -0.5763    0.0000 C.ar    1  UNL1       -0.0091
     16 C           3.7199   -1.7983    0.0000 C.2     1  UNL1       -0.0554
     17 C           4.5002   -2.3894    0.0000 C.3     1  UNL1        0.0209
     18 C           6.2399    0.8175    0.0000 C.3     1  UNL1        0.1099
     19 C           5.2446    0.9148    0.0000 C.2     1  UNL1        0.3182
     20 C           7.7907    0.3747    0.0000 C.ar    1  UNL1        0.0680
     21 C           9.1151   -0.8086    0.0000 C.ar    1  UNL1       -0.0556
     22 C           2.8008   -2.1923    0.0000 C.2     1  UNL1       -0.0864
     23 C           8.4757    1.1595    0.0000 C.ar    1  UNL1       -0.0360
     24 C           9.8181   -0.0399    0.0000 C.ar    1  UNL1       -0.0613
     25 C           2.0000   -1.5934    0.0000 C.3     1  UNL1       -0.0465
     26 C           9.4962    0.9508    0.0000 C.ar    1  UNL1       -0.0597
     27 C           7.2478    2.2261    0.0000 C.2     1  UNL1        0.3040
     28 C           3.8360    1.9228    0.0000 C.3     1  UNL1        0.0817
     29 C           6.4346    2.8080    0.0000 C.3     1  UNL1        0.0332
     30 H           3.1428   -0.3249    0.0000 H       1  UNL1        0.0359
     31 H           5.1840   -0.2061    0.0000 H       1  UNL1        0.0525
     32 H           5.1626    0.0130    0.0000 H       1  UNL1        0.0290
     33 H           4.3710    0.0876    0.0000 H       1  UNL1        0.0290
     34 H           7.3540   -2.8016    0.0000 H       1  UNL1        0.0290
     35 H           7.8157   -2.1504    0.0000 H       1  UNL1        0.0290
     36 H           5.8046   -3.0644    0.0000 H       1  UNL1        0.0427
     37 H           6.5989   -3.1448    0.0000 H       1  UNL1        0.0427
     38 H           4.0439   -2.8092    0.0000 H       1  UNL1        0.0473
     39 H           4.8322   -2.9130    0.0000 H       1  UNL1        0.0473
     40 H           6.1922    1.4357    0.0000 H       1  UNL1        0.0709
     41 H           6.6335    0.3385    0.0000 H       1  UNL1        0.0709
     42 H           9.2999   -1.4004    0.0000 H       1  UNL1        0.0621
     43 H           2.7274   -2.8080    0.0000 H       1  UNL1        0.0569
     44 H           8.2773    1.7469    0.0000 H       1  UNL1        0.0639
     45 H          10.4240   -0.1711    0.0000 H       1  UNL1        0.0618
     46 H           2.3713   -1.0969    0.0000 H       1  UNL1        0.0272
     47 H           1.5035   -1.2221    0.0000 H       1  UNL1        0.0272
     48 H           1.6287   -2.0899    0.0000 H       1  UNL1        0.0272
     49 H           9.9093    1.4131    0.0000 H       1  UNL1        0.0618
     50 H           4.4006    2.1790    0.0000 H       1  UNL1        0.0661
     51 H           3.5798    2.4873    0.0000 H       1  UNL1        0.0661
     52 H           3.2715    1.6665    0.0000 H       1  UNL1        0.0661
     53 H           6.7954    3.3122    0.0000 H       1  UNL1        0.0342
     54 H           5.9304    3.1688    0.0000 H       1  UNL1        0.0342
     55 H           6.0738    2.3038    0.0000 H       1  UNL1        0.0342
@<TRIPOS>BOND
     1     1    18    1
     2     1    27    1
     3     2    19    1
     4     2    28    1
     5     3    19    2
     6     4    27    2
     7     5    10    1
     8     5    14    1
     9     5    17    1
    10     6    11    2
    11     6    20    1
    12     7     8    1
    13     7    11    1
    14     7    13    1
    15     7    15    1
    16     8     9    1
    17     8    18    1
    18     8    19    1
    19     9    12    1
    20     9    16    1
    21     9    30    1
    22    10    11    1
    23    10    12    1
    24    10    31    1
    25    12    32    1
    26    12    33    1
    27    13    14    1
    28    13    34    1
    29    13    35    1
    30    14    36    1
    31    14    37    1
    32    15    20   ar
    33    15    21   ar
    34    16    17    1
    35    16    22    2
    36    17    38    1
    37    17    39    1
    38    18    40    1
    39    18    41    1
    40    20    23   ar
    41    21    24   ar
    42    21    42    1
    43    22    25    1
    44    22    43    1
    45    23    26   ar
    46    23    44    1
    47    24    26   ar
    48    24    45    1
    49    25    46    1
    50    25    47    1
    51    25    48    1
    52    26    49    1
    53    27    29    1
    54    28    50    1
    55    28    51    1
    56    28    52    1
    57    29    53    1
    58    29    54    1
    59    29    55    1
