@<TRIPOS>MOLECULE
IMPHY009420
 82 86 0 0 0
SMALL
GASTEIGER

@<TRIPOS>ATOM
      1 O           6.1847   -3.4047    0.0000 O.3     1  UNL1       -0.3915
      2 O           2.5357   -2.3878    0.0000 O.3     1  UNL1       -0.3912
      3 O          11.4608    0.6987    0.0000 O.3     1  UNL1       -0.4802
      4 O          10.6064   -0.8079    0.0000 O.2     1  UNL1       -0.2504
      5 C           7.0628   -0.8354    0.0000 C.3     1  UNL1       -0.0170
      6 C           6.1968   -0.3354    0.0000 C.3     1  UNL1       -0.0256
      7 C           5.2868   -0.8423    0.0000 C.3     1  UNL1       -0.0226
      8 C           7.9288   -0.3354    0.0000 C.3     1  UNL1       -0.0050
      9 C           5.2787   -1.8839    0.0000 C.3     1  UNL1       -0.0018
     10 C           7.0789   -1.8769    0.0000 C.3     1  UNL1       -0.0201
     11 C           6.1808   -2.4047    0.0000 C.3     1  UNL1        0.0597
     12 C           7.9288    0.6646    0.0000 C.2     1  UNL1       -0.0629
     13 C           4.3433   -2.4336    0.0000 C.3     1  UNL1       -0.0033
     14 C           8.8228    1.1992    0.0000 C.3     1  UNL1       -0.0031
     15 C           6.1968    0.6646    0.0000 C.3     1  UNL1       -0.0306
     16 C           4.3599   -0.2782    0.0000 C.3     1  UNL1       -0.0446
     17 C           8.8228   -0.8701    0.0000 C.3     1  UNL1       -0.0424
     18 C           9.7288    0.6854    0.0000 C.3     1  UNL1        0.0741
     19 C           7.7056   -1.6015    0.0000 C.3     1  UNL1       -0.0584
     20 C           9.7288   -0.3562    0.0000 C.3     1  UNL1       -0.0359
     21 C           3.4037   -1.8911    0.0000 C.3     1  UNL1        0.0607
     22 C           5.2945    0.1577    0.0000 C.3     1  UNL1       -0.0589
     23 C           7.0628    1.1646    0.0000 C.2     1  UNL1       -0.0836
     24 C           3.4120   -0.8061    0.0000 C.3     1  UNL1       -0.0258
     25 C           8.2709   -1.2751    0.0000 C.3     1  UNL1       -0.0553
     26 C           8.7977    2.2839    0.0000 C.3     1  UNL1       -0.0403
     27 C          10.6726    1.2206    0.0000 C.3     1  UNL1       -0.0362
     28 C           9.7288    2.8409    0.0000 C.3     1  UNL1       -0.0343
     29 C           3.8467   -3.3015    0.0000 C.3     1  UNL1       -0.0571
     30 C           4.8466   -3.2977    0.0000 C.3     1  UNL1       -0.0571
     31 C          10.6726    2.3056    0.0000 C.3     1  UNL1       -0.0468
     32 C          10.5987    0.1921    0.0000 C.2     1  UNL1        0.3115
     33 C          10.2188    3.7126    0.0000 C.3     1  UNL1       -0.0598
     34 C           9.2188    3.7010    0.0000 C.3     1  UNL1       -0.0598
     35 H           6.9329    0.0896    0.0000 H       1  UNL1        0.0315
     36 H           5.2820   -2.7339    0.0000 H       1  UNL1        0.0337
     37 H           7.2969   -2.4573    0.0000 H       1  UNL1        0.0296
     38 H           7.6880   -1.7614    0.0000 H       1  UNL1        0.0296
     39 H           6.7195   -2.7116    0.0000 H       1  UNL1        0.0596
     40 H           9.5522    1.6355    0.0000 H       1  UNL1        0.0357
     41 H           5.9847    1.2472    0.0000 H       1  UNL1        0.0310
     42 H           5.5862    0.5569    0.0000 H       1  UNL1        0.0310
     43 H           4.7681    0.1885    0.0000 H       1  UNL1        0.0272
     44 H           3.9700    0.2038    0.0000 H       1  UNL1        0.0272
     45 H           8.4182   -1.3399    0.0000 H       1  UNL1        0.0274
     46 H           9.2164   -1.3491    0.0000 H       1  UNL1        0.0274
     47 H           7.2306   -2.0000    0.0000 H       1  UNL1        0.0235
     48 H           8.1041   -2.0764    0.0000 H       1  UNL1        0.0235
     49 H           8.1805   -1.2029    0.0000 H       1  UNL1        0.0235
     50 H           9.9379   -0.9399    0.0000 H       1  UNL1        0.0276
     51 H          10.3397   -0.2501    0.0000 H       1  UNL1        0.0276
     52 H           3.4025   -2.5111    0.0000 H       1  UNL1        0.0599
     53 H           5.9145    0.1529    0.0000 H       1  UNL1        0.0235
     54 H           5.2993    0.7777    0.0000 H       1  UNL1        0.0235
     55 H           4.6745    0.1625    0.0000 H       1  UNL1        0.0235
     56 H           7.0628    1.7846    0.0000 H       1  UNL1        0.0572
     57 H           3.2075   -0.2209    0.0000 H       1  UNL1        0.0290
     58 H           2.8004   -0.9075    0.0000 H       1  UNL1        0.0290
     59 H           7.6884   -1.4872    0.0000 H       1  UNL1        0.0238
     60 H           8.4830   -1.8577    0.0000 H       1  UNL1        0.0238
     61 H           8.8535   -1.0630    0.0000 H       1  UNL1        0.0238
     62 H           8.5752    2.8626    0.0000 H       1  UNL1        0.0276
     63 H           8.1894    2.1638    0.0000 H       1  UNL1        0.0276
     64 H          10.8817    0.6369    0.0000 H       1  UNL1        0.0276
     65 H          11.2835    1.3267    0.0000 H       1  UNL1        0.0276
     66 H           3.3085   -2.9936    0.0000 H       1  UNL1        0.0236
     67 H           3.5387   -3.8397    0.0000 H       1  UNL1        0.0236
     68 H           4.3848   -3.6095    0.0000 H       1  UNL1        0.0236
     69 H           4.3109   -3.6098    0.0000 H       1  UNL1        0.0236
     70 H           5.1587   -3.8334    0.0000 H       1  UNL1        0.0236
     71 H           5.3824   -2.9856    0.0000 H       1  UNL1        0.0236
     72 H          11.2835    2.1995    0.0000 H       1  UNL1        0.0271
     73 H          10.8817    2.8893    0.0000 H       1  UNL1        0.0271
     74 H           6.7228   -3.7126    0.0000 H       1  UNL1        0.2098
     75 H           2.0000   -2.0757    0.0000 H       1  UNL1        0.2098
     76 H          10.7593    3.4088    0.0000 H       1  UNL1        0.0235
     77 H          10.5226    4.2531    0.0000 H       1  UNL1        0.0235
     78 H           9.6783    4.0164    0.0000 H       1  UNL1        0.0235
     79 H           9.7522    4.0172    0.0000 H       1  UNL1        0.0235
     80 H           8.9027    4.2344    0.0000 H       1  UNL1        0.0235
     81 H           8.6855    3.3849    0.0000 H       1  UNL1        0.0235
     82 H          12.0001    0.3929    0.0000 H       1  UNL1        0.2951
@<TRIPOS>BOND
     1    11     1    1
     2     1    74    1
     3    21     2    1
     4     2    75    1
     5     3    32    1
     6     3    82    1
     7     4    32    2
     8     5     6    1
     9     5     8    1
    10     5    10    1
    11     5    19    1
    12     6     7    1
    13     6    15    1
    14     6    35    1
    15     7     9    1
    16     7    16    1
    17     7    22    1
    18     8    12    1
    19     8    17    1
    20     8    25    1
    21     9    11    1
    22     9    13    1
    23     9    36    1
    24    10    11    1
    25    10    37    1
    26    10    38    1
    27    11    39    1
    28    12    14    1
    29    12    23    2
    30    13    21    1
    31    13    29    1
    32    13    30    1
    33    14    18    1
    34    14    26    1
    35    14    40    1
    36    15    23    1
    37    15    41    1
    38    15    42    1
    39    16    24    1
    40    16    43    1
    41    16    44    1
    42    17    20    1
    43    17    45    1
    44    17    46    1
    45    18    20    1
    46    18    27    1
    47    18    32    1
    48    19    47    1
    49    19    48    1
    50    19    49    1
    51    20    50    1
    52    20    51    1
    53    21    24    1
    54    21    52    1
    55    22    53    1
    56    22    54    1
    57    22    55    1
    58    23    56    1
    59    24    57    1
    60    24    58    1
    61    25    59    1
    62    25    60    1
    63    25    61    1
    64    26    28    1
    65    26    62    1
    66    26    63    1
    67    27    31    1
    68    27    64    1
    69    27    65    1
    70    28    31    1
    71    28    33    1
    72    28    34    1
    73    29    66    1
    74    29    67    1
    75    29    68    1
    76    30    69    1
    77    30    70    1
    78    30    71    1
    79    31    72    1
    80    31    73    1
    81    33    76    1
    82    33    77    1
    83    33    78    1
    84    34    79    1
    85    34    80    1
    86    34    81    1
