@<TRIPOS>MOLECULE
IMPHY011023
 58 57 0 0 0
SMALL
GASTEIGER

@<TRIPOS>ATOM
      1 N           2.5369   -0.0600    0.0000 N.3     1  UNL1       -0.3300
      2 C          10.3312   -0.5600    0.0000 C.3     1  UNL1       -0.0531
      3 C          11.1972   -0.0600    0.0000 C.3     1  UNL1       -0.0531
      4 C           9.4651   -0.0600    0.0000 C.3     1  UNL1       -0.0531
      5 C          12.0632   -0.5600    0.0000 C.3     1  UNL1       -0.0531
      6 C           8.5991   -0.5600    0.0000 C.3     1  UNL1       -0.0531
      7 C          12.9292   -0.0600    0.0000 C.3     1  UNL1       -0.0531
      8 C           7.7331   -0.0600    0.0000 C.3     1  UNL1       -0.0531
      9 C          13.7953   -0.5600    0.0000 C.3     1  UNL1       -0.0531
     10 C           6.8671   -0.5600    0.0000 C.3     1  UNL1       -0.0531
     11 C          14.6613   -0.0600    0.0000 C.3     1  UNL1       -0.0531
     12 C           6.0010   -0.0600    0.0000 C.3     1  UNL1       -0.0530
     13 C          15.5273   -0.5600    0.0000 C.3     1  UNL1       -0.0531
     14 C           5.1350   -0.5600    0.0000 C.3     1  UNL1       -0.0519
     15 C          16.3933   -0.0600    0.0000 C.3     1  UNL1       -0.0533
     16 C           4.2690   -0.0600    0.0000 C.3     1  UNL1       -0.0406
     17 C          17.2594   -0.5600    0.0000 C.3     1  UNL1       -0.0559
     18 C           3.4030   -0.5600    0.0000 C.3     1  UNL1       -0.0069
     19 C          18.1254   -0.0600    0.0000 C.3     1  UNL1       -0.0653
     20 H           9.9326   -1.0350    0.0000 H       1  UNL1        0.0265
     21 H          10.7297   -1.0350    0.0000 H       1  UNL1        0.0265
     22 H          11.5957    0.4149    0.0000 H       1  UNL1        0.0265
     23 H          10.7987    0.4149    0.0000 H       1  UNL1        0.0265
     24 H           9.8637    0.4149    0.0000 H       1  UNL1        0.0265
     25 H           9.0666    0.4149    0.0000 H       1  UNL1        0.0265
     26 H          11.6647   -1.0350    0.0000 H       1  UNL1        0.0265
     27 H          12.4617   -1.0350    0.0000 H       1  UNL1        0.0265
     28 H           8.2006   -1.0350    0.0000 H       1  UNL1        0.0265
     29 H           8.9976   -1.0350    0.0000 H       1  UNL1        0.0265
     30 H          13.3278    0.4149    0.0000 H       1  UNL1        0.0265
     31 H          12.5307    0.4149    0.0000 H       1  UNL1        0.0265
     32 H           8.1316    0.4149    0.0000 H       1  UNL1        0.0265
     33 H           7.3346    0.4149    0.0000 H       1  UNL1        0.0265
     34 H          13.3967   -1.0350    0.0000 H       1  UNL1        0.0265
     35 H          14.1938   -1.0350    0.0000 H       1  UNL1        0.0265
     36 H           6.4685   -1.0350    0.0000 H       1  UNL1        0.0265
     37 H           7.2656   -1.0350    0.0000 H       1  UNL1        0.0265
     38 H          15.0598    0.4149    0.0000 H       1  UNL1        0.0265
     39 H          14.2628    0.4149    0.0000 H       1  UNL1        0.0265
     40 H           6.3996    0.4149    0.0000 H       1  UNL1        0.0265
     41 H           5.6025    0.4149    0.0000 H       1  UNL1        0.0265
     42 H          15.1288   -1.0350    0.0000 H       1  UNL1        0.0265
     43 H          15.9258   -1.0350    0.0000 H       1  UNL1        0.0265
     44 H           4.7365   -1.0350    0.0000 H       1  UNL1        0.0266
     45 H           5.5335   -1.0350    0.0000 H       1  UNL1        0.0266
     46 H          16.7919    0.4149    0.0000 H       1  UNL1        0.0265
     47 H          15.9948    0.4149    0.0000 H       1  UNL1        0.0265
     48 H           4.6675    0.4149    0.0000 H       1  UNL1        0.0277
     49 H           3.8705    0.4149    0.0000 H       1  UNL1        0.0277
     50 H          16.8608   -1.0350    0.0000 H       1  UNL1        0.0263
     51 H          17.6579   -1.0350    0.0000 H       1  UNL1        0.0263
     52 H           3.0044   -1.0350    0.0000 H       1  UNL1        0.0422
     53 H           3.8015   -1.0350    0.0000 H       1  UNL1        0.0422
     54 H          18.4354   -0.5969    0.0000 H       1  UNL1        0.0230
     55 H          18.6623    0.2500    0.0000 H       1  UNL1        0.0230
     56 H          17.8154    0.4769    0.0000 H       1  UNL1        0.0230
     57 H           2.0000   -0.3700    0.0000 H       1  UNL1        0.1182
     58 H           2.5369    0.5600    0.0000 H       1  UNL1        0.1182
@<TRIPOS>BOND
     1     1    18    1
     2     1    57    1
     3     1    58    1
     4     2     3    1
     5     2     4    1
     6     2    20    1
     7     2    21    1
     8     3     5    1
     9     3    22    1
    10     3    23    1
    11     4     6    1
    12     4    24    1
    13     4    25    1
    14     5     7    1
    15     5    26    1
    16     5    27    1
    17     6     8    1
    18     6    28    1
    19     6    29    1
    20     7     9    1
    21     7    30    1
    22     7    31    1
    23     8    10    1
    24     8    32    1
    25     8    33    1
    26     9    11    1
    27     9    34    1
    28     9    35    1
    29    10    12    1
    30    10    36    1
    31    10    37    1
    32    11    13    1
    33    11    38    1
    34    11    39    1
    35    12    14    1
    36    12    40    1
    37    12    41    1
    38    13    15    1
    39    13    42    1
    40    13    43    1
    41    14    16    1
    42    14    44    1
    43    14    45    1
    44    15    17    1
    45    15    46    1
    46    15    47    1
    47    16    18    1
    48    16    48    1
    49    16    49    1
    50    17    19    1
    51    17    50    1
    52    17    51    1
    53    18    52    1
    54    18    53    1
    55    19    54    1
    56    19    55    1
    57    19    56    1
