@<TRIPOS>MOLECULE
IMPHY000766
 102 108 0 0 0
SMALL
GASTEIGER

@<TRIPOS>ATOM
      1 O           9.8298    0.5313    0.0000 O.3     1  UNL1       -0.4797
      2 O          11.5999    2.5901    0.0000 O.3     1  UNL1       -0.4534
      3 O           7.0302   -1.9188    0.0000 O.3     1  UNL1       -0.4566
      4 O           6.3378    0.5660    0.0000 O.3     1  UNL1       -0.5062
      5 O           8.0698    3.5660    0.0000 O.3     1  UNL1       -0.5063
      6 O          11.3250   -1.6188    0.0000 O.3     1  UNL1       -0.5032
      7 O           8.6714   -3.8455    0.0000 O.3     1  UNL1       -0.5032
      8 O           5.0522    1.0981    0.0000 O.3     1  UNL1       -0.5063
      9 O           5.6538   -2.3134    0.0000 O.3     1  UNL1       -0.5063
     10 O          13.3809   -1.1917    0.0000 O.3     1  UNL1       -0.5032
     11 O          13.9956    2.2174    0.0000 O.3     1  UNL1       -0.5032
     12 O          10.6410   -3.4982    0.0000 O.3     1  UNL1       -0.5009
     13 O          10.7281    4.0868    0.0000 O.2     1  UNL1       -0.2449
     14 O          14.6724    0.3354    0.0000 O.3     1  UNL1       -0.5009
     15 O           8.1435   -3.2456    0.0000 O.2     1  UNL1       -0.2449
     16 O           2.3985   -1.1286    0.0000 O.3     1  UNL1       -0.5065
     17 O          13.3166    6.5968    0.0000 O.3     1  UNL1       -0.5032
     18 O          15.0602    3.6035    0.0000 O.3     1  UNL1       -0.5032
     19 O           4.2038   -4.6357    0.0000 O.3     1  UNL1       -0.5032
     20 O           7.2038   -6.3677    0.0000 O.3     1  UNL1       -0.5032
     21 O          15.0525    5.6035    0.0000 O.3     1  UNL1       -0.5009
     22 O           5.2039   -6.3678    0.0000 O.3     1  UNL1       -0.5009
     23 C           8.0698   -0.4340    0.0000 C.3     1  UNL1        0.0537
     24 C          10.7358    2.0868    0.0000 C.3     1  UNL1        0.1483
     25 C           8.0698    0.5660    0.0000 C.ar    1  UNL1        0.0470
     26 C          10.7358    1.0452    0.0000 C.3     1  UNL1        0.1624
     27 C           9.8298    2.6006    0.0000 C.3     1  UNL1        0.0204
     28 C           8.9358    1.0660    0.0000 C.ar    1  UNL1        0.1357
     29 C           8.9358    2.0660    0.0000 C.ar    1  UNL1        0.0398
     30 C           7.2038   -0.9340    0.0000 C.3     1  UNL1        0.1185
     31 C           8.7126   -1.2001    0.0000 C.ar    1  UNL1       -0.0291
     32 C           6.3378   -0.4340    0.0000 C.3     1  UNL1        0.0174
     33 C           7.2038    1.0660    0.0000 C.ar    1  UNL1        0.1277
     34 C           8.0698    2.5660    0.0000 C.ar    1  UNL1        0.1271
     35 C          11.7200    0.8677    0.0000 C.ar    1  UNL1        0.0034
     36 C           7.2038    2.0660    0.0000 C.ar    1  UNL1        0.0221
     37 C           5.3530   -0.6076    0.0000 C.ar    1  UNL1        0.0391
     38 C           8.3706   -2.1398    0.0000 C.ar    1  UNL1       -0.0124
     39 C           9.6974   -1.0264    0.0000 C.ar    1  UNL1       -0.0124
     40 C          12.3657    1.6313    0.0000 C.ar    1  UNL1       -0.0095
     41 C          12.0584   -0.0733    0.0000 C.ar    1  UNL1       -0.0095
     42 C          10.3402   -1.7925    0.0000 C.ar    1  UNL1        0.1622
     43 C           9.0134   -2.9058    0.0000 C.ar    1  UNL1        0.1622
     44 C          11.5961    3.5901    0.0000 C.2     1  UNL1        0.3398
     45 C           4.7102    0.1585    0.0000 C.ar    1  UNL1        0.1271
     46 C           5.0110   -1.5474    0.0000 C.ar    1  UNL1        0.1271
     47 C          13.0425   -0.2507    0.0000 C.ar    1  UNL1        0.1623
     48 C          13.3498    1.4538    0.0000 C.ar    1  UNL1        0.1623
     49 C           7.2038   -2.9036    0.0000 C.2     1  UNL1        0.3397
     50 C           9.9982   -2.7322    0.0000 C.ar    1  UNL1        0.2006
     51 C          13.6882    0.5128    0.0000 C.ar    1  UNL1        0.2006
     52 C           3.7254   -0.0152    0.0000 C.ar    1  UNL1        0.0218
     53 C           4.0261   -1.7210    0.0000 C.ar    1  UNL1        0.0218
     54 C          12.4602    4.0935    0.0000 C.ar    1  UNL1        0.0661
     55 C           6.7039   -3.7697    0.0000 C.ar    1  UNL1        0.0661
     56 C           3.3833   -0.9549    0.0000 C.ar    1  UNL1        0.1238
     57 C          13.3281    3.5968    0.0000 C.ar    1  UNL1       -0.0023
     58 C          12.4563    5.0934    0.0000 C.ar    1  UNL1       -0.0023
     59 C           7.2038   -4.6356    0.0000 C.ar    1  UNL1       -0.0023
     60 C           5.7038   -3.7696    0.0000 C.ar    1  UNL1       -0.0023
     61 C          13.3204    5.5968    0.0000 C.ar    1  UNL1        0.1628
     62 C          14.1922    4.1001    0.0000 C.ar    1  UNL1        0.1628
     63 C           5.2038   -4.6357    0.0000 C.ar    1  UNL1        0.1628
     64 C           6.7038   -5.5017    0.0000 C.ar    1  UNL1        0.1628
     65 C          14.1884    5.1001    0.0000 C.ar    1  UNL1        0.2006
     66 C           5.7039   -5.5017    0.0000 C.ar    1  UNL1        0.2006
     67 H           7.9622   -1.0446    0.0000 H       1  UNL1        0.0436
     68 H          11.2734    1.7778    0.0000 H       1  UNL1        0.0778
     69 H          10.8400    0.4340    0.0000 H       1  UNL1        0.0822
     70 H          10.2234    3.0797    0.0000 H       1  UNL1        0.0353
     71 H           9.4252    3.0704    0.0000 H       1  UNL1        0.0353
     72 H           6.6419   -1.1961    0.0000 H       1  UNL1        0.0747
     73 H           6.7887   -0.0086    0.0000 H       1  UNL1        0.0352
     74 H           6.0595    0.1200    0.0000 H       1  UNL1        0.0352
     75 H           6.6668    2.3760    0.0000 H       1  UNL1        0.0691
     76 H           7.7600   -2.2474    0.0000 H       1  UNL1        0.0658
     77 H           9.9095   -0.4438    0.0000 H       1  UNL1        0.0658
     78 H          12.1559    2.2147    0.0000 H       1  UNL1        0.0659
     79 H          11.6580   -0.5467    0.0000 H       1  UNL1        0.0659
     80 H           5.8008    0.8760    0.0000 H       1  UNL1        0.2921
     81 H           7.5329    3.8760    0.0000 H       1  UNL1        0.2921
     82 H           3.3268    0.4598    0.0000 H       1  UNL1        0.0691
     83 H           3.8141   -2.3036    0.0000 H       1  UNL1        0.0691
     84 H          11.5371   -1.0362    0.0000 H       1  UNL1        0.2923
     85 H           9.0699   -4.3204    0.0000 H       1  UNL1        0.2923
     86 H           4.6537    1.5730    0.0000 H       1  UNL1        0.2921
     87 H           5.4418   -2.8960    0.0000 H       1  UNL1        0.2921
     88 H          13.9911   -1.3017    0.0000 H       1  UNL1        0.2923
     89 H          13.7858    2.8008    0.0000 H       1  UNL1        0.2923
     90 H          11.2515   -3.3905    0.0000 H       1  UNL1        0.2924
     91 H          13.3305    2.9768    0.0000 H       1  UNL1        0.0663
     92 H          11.9182    5.4014    0.0000 H       1  UNL1        0.0663
     93 H           7.8238   -4.6357    0.0000 H       1  UNL1        0.0663
     94 H           5.3938   -3.2327    0.0000 H       1  UNL1        0.0663
     95 H          15.0727    0.8088    0.0000 H       1  UNL1        0.2924
     96 H           2.0000   -0.6536    0.0000 H       1  UNL1        0.2921
     97 H          12.7784    6.9047    0.0000 H       1  UNL1        0.2923
     98 H          15.5959    3.9155    0.0000 H       1  UNL1        0.2923
     99 H           3.8938   -5.1726    0.0000 H       1  UNL1        0.2923
    100 H           6.8938   -6.9046    0.0000 H       1  UNL1        0.2923
    101 H          15.0501    6.2235    0.0000 H       1  UNL1        0.2924
    102 H           5.5139   -6.9047    0.0000 H       1  UNL1        0.2924
@<TRIPOS>BOND
     1     1    26    1
     2     1    28    1
     3    24     2    1
     4     2    44    1
     5    30     3    1
     6     3    49    1
     7     4    33    1
     8     4    80    1
     9     5    34    1
    10     5    81    1
    11     6    42    1
    12     6    84    1
    13     7    43    1
    14     7    85    1
    15     8    45    1
    16     8    86    1
    17     9    46    1
    18     9    87    1
    19    10    47    1
    20    10    88    1
    21    11    48    1
    22    11    89    1
    23    12    50    1
    24    12    90    1
    25    13    44    2
    26    14    51    1
    27    14    95    1
    28    15    49    2
    29    16    56    1
    30    16    96    1
    31    17    61    1
    32    17    97    1
    33    18    62    1
    34    18    98    1
    35    19    63    1
    36    19    99    1
    37    20    64    1
    38    20   100    1
    39    21    65    1
    40    21   101    1
    41    22    66    1
    42    22   102    1
    43    23    25    1
    44    23    30    1
    45    23    31    1
    46    23    67    1
    47    24    26    1
    48    24    27    1
    49    24    68    1
    50    25    28   ar
    51    25    33   ar
    52    26    35    1
    53    26    69    1
    54    27    29    1
    55    27    70    1
    56    27    71    1
    57    28    29   ar
    58    29    34   ar
    59    30    32    1
    60    30    72    1
    61    31    38   ar
    62    31    39   ar
    63    32    37    1
    64    32    73    1
    65    32    74    1
    66    33    36   ar
    67    34    36   ar
    68    35    40   ar
    69    35    41   ar
    70    36    75    1
    71    37    45   ar
    72    37    46   ar
    73    38    43   ar
    74    38    76    1
    75    39    42   ar
    76    39    77    1
    77    40    48   ar
    78    40    78    1
    79    41    47   ar
    80    41    79    1
    81    42    50   ar
    82    43    50   ar
    83    44    54    1
    84    45    52   ar
    85    46    53   ar
    86    47    51   ar
    87    48    51   ar
    88    49    55    1
    89    52    56   ar
    90    52    82    1
    91    53    56   ar
    92    53    83    1
    93    54    57   ar
    94    54    58   ar
    95    55    59   ar
    96    55    60   ar
    97    57    62   ar
    98    57    91    1
    99    58    61   ar
   100    58    92    1
   101    59    64   ar
   102    59    93    1
   103    60    63   ar
   104    60    94    1
   105    61    65   ar
   106    62    65   ar
   107    63    66   ar
   108    64    66   ar
