@<TRIPOS>MOLECULE
IMPHY000700
 83 87 0 0 0
SMALL
GASTEIGER

@<TRIPOS>ATOM
      1 O           6.4144   -3.2420    0.0000 O.3     1  UNL1       -0.3906
      2 O          11.1246    2.7352    0.0000 O.3     1  UNL1       -0.3881
      3 O           9.3052    3.7671    0.0000 O.3     1  UNL1       -0.3892
      4 O          11.7572    0.2751    0.0000 O.3     1  UNL1       -0.4802
      5 O           3.9891   -3.4509    0.0000 O.3     1  UNL1       -0.4802
      6 O          11.7638    2.0072    0.0000 O.2     1  UNL1       -0.2503
      7 O           5.1937   -3.8999    0.0000 O.2     1  UNL1       -0.2503
      8 C           7.5167   -0.4091    0.0000 C.3     1  UNL1       -0.0193
      9 C           7.5167    0.5909    0.0000 C.3     1  UNL1       -0.0256
     10 C           8.4106    1.1255    0.0000 C.3     1  UNL1       -0.0221
     11 C           6.6507   -0.9091    0.0000 C.3     1  UNL1       -0.0028
     12 C           9.3167    0.6117    0.0000 C.3     1  UNL1       -0.0173
     13 C           8.4106   -0.9438    0.0000 C.3     1  UNL1       -0.0463
     14 C           5.7847   -0.4091    0.0000 C.2     1  UNL1       -0.0627
     15 C           9.3167   -0.4300    0.0000 C.3     1  UNL1       -0.0481
     16 C           4.8746   -0.9160    0.0000 C.3     1  UNL1       -0.0007
     17 C          10.2605    1.1469    0.0000 C.3     1  UNL1        0.0962
     18 C           6.6667   -1.9506    0.0000 C.3     1  UNL1       -0.0162
     19 C           6.6507    1.0909    0.0000 C.3     1  UNL1       -0.0306
     20 C           4.8666   -1.9576    0.0000 C.3     1  UNL1        0.0998
     21 C           8.3856    2.2102    0.0000 C.3     1  UNL1       -0.0184
     22 C           5.7687   -2.4784    0.0000 C.3     1  UNL1        0.0723
     23 C           7.8588   -1.3488    0.0000 C.3     1  UNL1       -0.0585
     24 C           5.7847    0.5909    0.0000 C.2     1  UNL1       -0.0836
     25 C           7.5408    1.6188    0.0000 C.3     1  UNL1       -0.0589
     26 C          10.2605    2.2319    0.0000 C.3     1  UNL1        0.0967
     27 C           9.3167    2.7671    0.0000 C.3     1  UNL1        0.0826
     28 C           7.2935   -1.6752    0.0000 C.3     1  UNL1       -0.0552
     29 C           3.9478   -0.3519    0.0000 C.3     1  UNL1       -0.0402
     30 C           3.9312   -2.5073    0.0000 C.3     1  UNL1       -0.0338
     31 C           2.9999   -0.8799    0.0000 C.3     1  UNL1       -0.0343
     32 C           2.9916   -1.9648    0.0000 C.3     1  UNL1       -0.0467
     33 C          10.7572    0.2790    0.0000 C.3     1  UNL1       -0.0466
     34 C          11.2605    1.1431    0.0000 C.2     1  UNL1        0.3135
     35 C           4.8589   -2.9576    0.0000 C.2     1  UNL1        0.3140
     36 C           2.0000   -0.8683    0.0000 C.3     1  UNL1       -0.0598
     37 C           2.5100   -0.0081    0.0000 C.3     1  UNL1       -0.0598
     38 H           8.2561    0.1715    0.0000 H       1  UNL1        0.0315
     39 H          10.0512    0.1838    0.0000 H       1  UNL1        0.0317
     40 H           8.0060   -1.4136    0.0000 H       1  UNL1        0.0271
     41 H           8.8043   -1.4228    0.0000 H       1  UNL1        0.0271
     42 H           9.5258   -1.0136    0.0000 H       1  UNL1        0.0269
     43 H           9.9276   -0.3239    0.0000 H       1  UNL1        0.0269
     44 H           4.8910   -0.0661    0.0000 H       1  UNL1        0.0357
     45 H           6.8848   -2.5310    0.0000 H       1  UNL1        0.0299
     46 H           7.2759   -1.8352    0.0000 H       1  UNL1        0.0299
     47 H           7.0492    1.5658    0.0000 H       1  UNL1        0.0310
     48 H           6.2522    1.5658    0.0000 H       1  UNL1        0.0310
     49 H           8.1631    2.7889    0.0000 H       1  UNL1        0.0296
     50 H           7.7773    2.0900    0.0000 H       1  UNL1        0.0296
     51 H           5.3711   -2.9541    0.0000 H       1  UNL1        0.0605
     52 H           7.2762   -1.5609    0.0000 H       1  UNL1        0.0235
     53 H           8.0709   -1.9314    0.0000 H       1  UNL1        0.0235
     54 H           8.4414   -1.1367    0.0000 H       1  UNL1        0.0235
     55 H           5.2477    0.9009    0.0000 H       1  UNL1        0.0572
     56 H           7.8466    2.1581    0.0000 H       1  UNL1        0.0235
     57 H           7.0015    1.9247    0.0000 H       1  UNL1        0.0235
     58 H           7.2349    1.0795    0.0000 H       1  UNL1        0.0235
     59 H          10.7980    1.9229    0.0000 H       1  UNL1        0.0630
     60 H           9.8506    3.0823    0.0000 H       1  UNL1        0.0619
     61 H           6.8185   -2.0737    0.0000 H       1  UNL1        0.0238
     62 H           7.6920   -2.1501    0.0000 H       1  UNL1        0.0238
     63 H           7.7684   -1.2767    0.0000 H       1  UNL1        0.0238
     64 H           4.3560    0.1147    0.0000 H       1  UNL1        0.0276
     65 H           3.5579    0.1301    0.0000 H       1  UNL1        0.0276
     66 H           3.5339   -2.9833    0.0000 H       1  UNL1        0.0277
     67 H           4.3322   -2.9802    0.0000 H       1  UNL1        0.0277
     68 H           2.3816   -1.8540    0.0000 H       1  UNL1        0.0271
     69 H           2.7780   -2.5469    0.0000 H       1  UNL1        0.0271
     70 H          10.2190   -0.0290    0.0000 H       1  UNL1        0.0241
     71 H          11.0651   -0.2592    0.0000 H       1  UNL1        0.0241
     72 H          11.2953    0.5869    0.0000 H       1  UNL1        0.0241
     73 H           7.0246   -3.1319    0.0000 H       1  UNL1        0.2098
     74 H           2.0072   -0.2483    0.0000 H       1  UNL1        0.0235
     75 H           3.0505    0.2957    0.0000 H       1  UNL1        0.0235
     76 H           2.2062    0.5324    0.0000 H       1  UNL1        0.0235
     77 H           1.9695   -0.3119    0.0000 H       1  UNL1        0.0235
     78 H           1.3800   -0.8611    0.0000 H       1  UNL1        0.0235
     79 H           1.9928   -1.4882    0.0000 H       1  UNL1        0.0235
     80 H          11.1222    3.3552    0.0000 H       1  UNL1        0.2099
     81 H           8.7647    4.0708    0.0000 H       1  UNL1        0.2099
     82 H          12.3771    0.2727    0.0000 H       1  UNL1        0.2951
     83 H           3.9843   -4.0708    0.0000 H       1  UNL1        0.2951
@<TRIPOS>BOND
     1    22     1    1
     2     1    73    1
     3    26     2    1
     4     2    80    1
     5    27     3    1
     6     3    81    1
     7     4    34    1
     8     4    82    1
     9     5    35    1
    10     5    83    1
    11     6    34    2
    12     7    35    2
    13     8     9    1
    14     8    11    1
    15     8    13    1
    16     8    23    1
    17     9    10    1
    18     9    19    1
    19     9    38    1
    20    10    12    1
    21    10    21    1
    22    10    25    1
    23    11    14    1
    24    11    18    1
    25    11    28    1
    26    12    15    1
    27    12    17    1
    28    12    39    1
    29    13    15    1
    30    13    40    1
    31    13    41    1
    32    14    16    1
    33    14    24    2
    34    15    42    1
    35    15    43    1
    36    16    20    1
    37    16    29    1
    38    16    44    1
    39    17    26    1
    40    17    33    1
    41    17    34    1
    42    18    22    1
    43    18    45    1
    44    18    46    1
    45    19    24    1
    46    19    47    1
    47    19    48    1
    48    20    22    1
    49    20    30    1
    50    20    35    1
    51    21    27    1
    52    21    49    1
    53    21    50    1
    54    22    51    1
    55    23    52    1
    56    23    53    1
    57    23    54    1
    58    24    55    1
    59    25    56    1
    60    25    57    1
    61    25    58    1
    62    26    27    1
    63    26    59    1
    64    27    60    1
    65    28    61    1
    66    28    62    1
    67    28    63    1
    68    29    31    1
    69    29    64    1
    70    29    65    1
    71    30    32    1
    72    30    66    1
    73    30    67    1
    74    31    32    1
    75    31    36    1
    76    31    37    1
    77    32    68    1
    78    32    69    1
    79    33    70    1
    80    33    71    1
    81    33    72    1
    82    36    74    1
    83    36    78    1
    84    36    79    1
    85    37    75    1
    86    37    76    1
    87    37    77    1
