@<TRIPOS>MOLECULE
IMPHY008831
 45 48 0 0 0
SMALL
GASTEIGER

@<TRIPOS>ATOM
      1 O           3.9061    0.9397    0.0000 O.3     1  UNL1       -0.4778
      2 O           5.6660    1.9050    0.0000 O.3     1  UNL1       -0.4895
      3 O           5.6660   -2.0950    0.0000 O.3     1  UNL1       -0.5053
      4 O           7.4144   -2.1296    0.0000 O.2     1  UNL1       -0.2864
      5 O           9.2517    1.9827    0.0000 O.3     1  UNL1       -0.5047
      6 N           7.4260    0.9397    0.0000 N.ar    1  UNL1       -0.3369
      7 C           3.0000    0.4258    0.0000 C.3     1  UNL1        0.1237
      8 C           6.5320    0.4050    0.0000 C.ar    1  UNL1        0.1025
      9 C           6.5320   -0.5950    0.0000 C.ar    1  UNL1        0.0915
     10 C           4.8000    0.4050    0.0000 C.ar    1  UNL1        0.1758
     11 C           4.8000   -0.5950    0.0000 C.ar    1  UNL1        0.0624
     12 C           5.6660    0.9050    0.0000 C.ar    1  UNL1        0.1866
     13 C           5.6660   -1.0950    0.0000 C.ar    1  UNL1        0.1405
     14 C           8.3321    0.4258    0.0000 C.ar    1  UNL1        0.0950
     15 C           3.0000   -0.6158    0.0000 C.2     1  UNL1       -0.0408
     16 C           8.3321   -0.6158    0.0000 C.ar    1  UNL1        0.0495
     17 C           7.4260   -1.1297    0.0000 C.ar    1  UNL1        0.2009
     18 C           3.9061   -1.1297    0.0000 C.2     1  UNL1       -0.0477
     19 C           2.0000    0.4297    0.0000 C.3     1  UNL1       -0.0215
     20 C           2.5033    1.2938    0.0000 C.3     1  UNL1       -0.0215
     21 C           7.4144    1.9396    0.0000 C.3     1  UNL1        0.0126
     22 C           9.2632    0.9827    0.0000 C.ar    1  UNL1        0.1409
     23 C           9.2632   -1.1727    0.0000 C.ar    1  UNL1       -0.0487
     24 C          10.2070    0.4475    0.0000 C.ar    1  UNL1       -0.0181
     25 C          10.2070   -0.6375    0.0000 C.ar    1  UNL1       -0.0575
     26 C           4.8000    2.4050    0.0000 C.3     1  UNL1        0.0791
     27 H           2.4643   -0.9279    0.0000 H       1  UNL1        0.0611
     28 H           3.9132   -1.7496    0.0000 H       1  UNL1        0.0624
     29 H           2.0024    1.0497    0.0000 H       1  UNL1        0.0271
     30 H           1.3800    0.4321    0.0000 H       1  UNL1        0.0271
     31 H           1.9976   -0.1903    0.0000 H       1  UNL1        0.0271
     32 H           3.0415    1.6017    0.0000 H       1  UNL1        0.0271
     33 H           2.1954    1.8319    0.0000 H       1  UNL1        0.0271
     34 H           1.9652    0.9858    0.0000 H       1  UNL1        0.0271
     35 H           8.0344    1.9468    0.0000 H       1  UNL1        0.0456
     36 H           7.4073    2.5596    0.0000 H       1  UNL1        0.0456
     37 H           6.7945    1.9324    0.0000 H       1  UNL1        0.0456
     38 H           9.2560   -1.7927    0.0000 H       1  UNL1        0.0625
     39 H          10.7427    0.7596    0.0000 H       1  UNL1        0.0655
     40 H          10.7427   -0.9496    0.0000 H       1  UNL1        0.0619
     41 H           5.1291   -2.4050    0.0000 H       1  UNL1        0.2922
     42 H           5.1100    2.9419    0.0000 H       1  UNL1        0.0660
     43 H           4.2631    2.7150    0.0000 H       1  UNL1        0.0660
     44 H           4.4900    1.8681    0.0000 H       1  UNL1        0.0660
     45 H           9.7850    2.2989    0.0000 H       1  UNL1        0.2922
@<TRIPOS>BOND
     1     1     7    1
     2     1    10    1
     3     2    12    1
     4     2    26    1
     5     3    13    1
     6     3    41    1
     7     4    17    2
     8     5    22    1
     9     5    45    1
    10     6     8   ar
    11     6    14   ar
    12     6    21    1
    13     7    15    1
    14     7    19    1
    15     7    20    1
    16     8     9   ar
    17     8    12   ar
    18     9    13   ar
    19     9    17   ar
    20    10    11   ar
    21    10    12   ar
    22    11    13   ar
    23    11    18    1
    24    14    16   ar
    25    14    22   ar
    26    15    18    2
    27    15    27    1
    28    16    17   ar
    29    16    23   ar
    30    18    28    1
    31    19    29    1
    32    19    30    1
    33    19    31    1
    34    20    32    1
    35    20    33    1
    36    20    34    1
    37    21    35    1
    38    21    36    1
    39    21    37    1
    40    22    24   ar
    41    23    25   ar
    42    23    38    1
    43    24    25   ar
    44    24    39    1
    45    25    40    1
    46    26    42    1
    47    26    43    1
    48    26    44    1
