@<TRIPOS>MOLECULE
IMPHY007661
 81 85 0 0 0
SMALL
GASTEIGER

@<TRIPOS>ATOM
      1 O           2.5519    0.1994    0.0000 O.3     1  UNL1       -0.3892
      2 O           2.5357   -1.8922    0.0000 O.3     1  UNL1       -0.3883
      3 O          11.4608    1.1943    0.0000 O.3     1  UNL1       -0.4802
      4 O          10.6064   -0.3123    0.0000 O.2     1  UNL1       -0.2504
      5 O           4.3500   -3.6701    0.0000 O.3     1  UNL1       -0.3941
      6 C           7.0628   -0.3398    0.0000 C.3     1  UNL1       -0.0157
      7 C           7.9288    0.1601    0.0000 C.3     1  UNL1       -0.0048
      8 C           6.1968    0.1601    0.0000 C.3     1  UNL1       -0.0219
      9 C           5.2868   -0.3467    0.0000 C.3     1  UNL1       -0.0044
     10 C           7.9288    1.1602    0.0000 C.2     1  UNL1       -0.0629
     11 C           8.8228    1.6948    0.0000 C.3     1  UNL1       -0.0031
     12 C           9.7288    1.1810    0.0000 C.3     1  UNL1        0.0741
     13 C           8.8228   -0.3745    0.0000 C.3     1  UNL1       -0.0424
     14 C           7.0789   -1.3814    0.0000 C.3     1  UNL1       -0.0280
     15 C           6.1968    1.1602    0.0000 C.3     1  UNL1       -0.0303
     16 C           5.2787   -1.3883    0.0000 C.2     1  UNL1       -0.0566
     17 C           9.7288    0.1393    0.0000 C.3     1  UNL1       -0.0359
     18 C           4.3599    0.2174    0.0000 C.3     1  UNL1       -0.0150
     19 C           8.7977    2.7795    0.0000 C.3     1  UNL1       -0.0403
     20 C           7.0628    1.6602    0.0000 C.2     1  UNL1       -0.0836
     21 C           7.7056   -1.1059    0.0000 C.3     1  UNL1       -0.0582
     22 C           4.3433   -1.9380    0.0000 C.3     1  UNL1        0.0408
     23 C           8.2709   -0.7795    0.0000 C.3     1  UNL1       -0.0553
     24 C          10.6726    1.7162    0.0000 C.3     1  UNL1       -0.0362
     25 C           6.1808   -1.9091    0.0000 C.2     1  UNL1       -0.0830
     26 C           9.7288    3.3364    0.0000 C.3     1  UNL1       -0.0343
     27 C           5.2945    0.6533    0.0000 C.3     1  UNL1       -0.0555
     28 C           3.4120   -0.3106    0.0000 C.3     1  UNL1        0.0827
     29 C          10.6726    2.8012    0.0000 C.3     1  UNL1       -0.0468
     30 C           3.4037   -1.3955    0.0000 C.3     1  UNL1        0.0922
     31 C          10.5987    0.6877    0.0000 C.2     1  UNL1        0.3115
     32 C           3.8467   -2.8060    0.0000 C.3     1  UNL1        0.0557
     33 C           4.8466   -2.8021    0.0000 C.3     1  UNL1       -0.0512
     34 C          10.2188    4.2082    0.0000 C.3     1  UNL1       -0.0598
     35 C           9.2188    4.1966    0.0000 C.3     1  UNL1       -0.0598
     36 H           6.9329    0.5851    0.0000 H       1  UNL1        0.0318
     37 H           9.5522    2.1311    0.0000 H       1  UNL1        0.0357
     38 H           8.4182   -0.8443    0.0000 H       1  UNL1        0.0274
     39 H           9.2164   -0.8535    0.0000 H       1  UNL1        0.0274
     40 H           7.2969   -1.9618    0.0000 H       1  UNL1        0.0313
     41 H           7.6880   -1.2659    0.0000 H       1  UNL1        0.0313
     42 H           5.9847    1.7428    0.0000 H       1  UNL1        0.0311
     43 H           5.5862    1.0525    0.0000 H       1  UNL1        0.0311
     44 H           9.9379   -0.4444    0.0000 H       1  UNL1        0.0276
     45 H          10.3397    0.2454    0.0000 H       1  UNL1        0.0276
     46 H           4.7681    0.6840    0.0000 H       1  UNL1        0.0299
     47 H           3.9700    0.6994    0.0000 H       1  UNL1        0.0299
     48 H           8.5752    3.3582    0.0000 H       1  UNL1        0.0276
     49 H           8.1894    2.6593    0.0000 H       1  UNL1        0.0276
     50 H           7.0628    2.2802    0.0000 H       1  UNL1        0.0572
     51 H           7.2306   -1.5044    0.0000 H       1  UNL1        0.0236
     52 H           8.1041   -1.5808    0.0000 H       1  UNL1        0.0236
     53 H           8.1805   -0.7074    0.0000 H       1  UNL1        0.0236
     54 H           7.6884   -0.9916    0.0000 H       1  UNL1        0.0238
     55 H           8.4830   -1.3621    0.0000 H       1  UNL1        0.0238
     56 H           8.8535   -0.5674    0.0000 H       1  UNL1        0.0238
     57 H          10.8817    1.1325    0.0000 H       1  UNL1        0.0276
     58 H          11.2835    1.8223    0.0000 H       1  UNL1        0.0276
     59 H           6.1832   -2.5291    0.0000 H       1  UNL1        0.0572
     60 H           5.9145    0.6485    0.0000 H       1  UNL1        0.0238
     61 H           5.2993    1.2733    0.0000 H       1  UNL1        0.0238
     62 H           4.6745    0.6581    0.0000 H       1  UNL1        0.0238
     63 H           2.8722   -0.6154    0.0000 H       1  UNL1        0.0619
     64 H          11.2835    2.6951    0.0000 H       1  UNL1        0.0271
     65 H          10.8817    3.3849    0.0000 H       1  UNL1        0.0271
     66 H           3.4025   -2.0155    0.0000 H       1  UNL1        0.0628
     67 H           3.3702   -2.4093    0.0000 H       1  UNL1        0.0566
     68 H           3.3732   -3.2063    0.0000 H       1  UNL1        0.0566
     69 H           4.3109   -3.1142    0.0000 H       1  UNL1        0.0240
     70 H           5.1587   -3.3378    0.0000 H       1  UNL1        0.0240
     71 H           5.3824   -2.4900    0.0000 H       1  UNL1        0.0240
     72 H          10.7593    3.9044    0.0000 H       1  UNL1        0.0235
     73 H          10.5226    4.7487    0.0000 H       1  UNL1        0.0235
     74 H           9.6783    4.5120    0.0000 H       1  UNL1        0.0235
     75 H           9.7522    4.5128    0.0000 H       1  UNL1        0.0235
     76 H           8.9027    4.7299    0.0000 H       1  UNL1        0.0235
     77 H           8.6855    3.8804    0.0000 H       1  UNL1        0.0235
     78 H           2.5590    0.8194    0.0000 H       1  UNL1        0.2099
     79 H           2.0000   -1.5801    0.0000 H       1  UNL1        0.2099
     80 H          12.0001    0.8885    0.0000 H       1  UNL1        0.2951
     81 H           4.0421   -4.2082    0.0000 H       1  UNL1        0.2094
@<TRIPOS>BOND
     1    28     1    1
     2     1    78    1
     3    30     2    1
     4     2    79    1
     5     3    31    1
     6     3    80    1
     7     4    31    2
     8     5    32    1
     9     5    81    1
    10     6     7    1
    11     6     8    1
    12     6    14    1
    13     6    21    1
    14     7    10    1
    15     7    13    1
    16     7    23    1
    17     8     9    1
    18     8    15    1
    19     8    36    1
    20     9    16    1
    21     9    18    1
    22     9    27    1
    23    10    11    1
    24    10    20    2
    25    11    12    1
    26    11    19    1
    27    11    37    1
    28    12    17    1
    29    12    24    1
    30    12    31    1
    31    13    17    1
    32    13    38    1
    33    13    39    1
    34    14    25    1
    35    14    40    1
    36    14    41    1
    37    15    20    1
    38    15    42    1
    39    15    43    1
    40    16    22    1
    41    16    25    2
    42    17    44    1
    43    17    45    1
    44    18    28    1
    45    18    46    1
    46    18    47    1
    47    19    26    1
    48    19    48    1
    49    19    49    1
    50    20    50    1
    51    21    51    1
    52    21    52    1
    53    21    53    1
    54    22    30    1
    55    22    32    1
    56    22    33    1
    57    23    54    1
    58    23    55    1
    59    23    56    1
    60    24    29    1
    61    24    57    1
    62    24    58    1
    63    25    59    1
    64    26    29    1
    65    26    34    1
    66    26    35    1
    67    27    60    1
    68    27    61    1
    69    27    62    1
    70    28    30    1
    71    28    63    1
    72    29    64    1
    73    29    65    1
    74    30    66    1
    75    32    67    1
    76    32    68    1
    77    33    69    1
    78    33    70    1
    79    33    71    1
    80    34    72    1
    81    34    73    1
    82    34    74    1
    83    35    75    1
    84    35    76    1
    85    35    77    1
