@<TRIPOS>MOLECULE
IMPHY003922
 82 85 0 0 0
SMALL
GASTEIGER

@<TRIPOS>ATOM
      1 O           7.7890    3.4997    0.0000 O.3     1  UNL1       -0.4641
      2 O          11.6706    0.6392    0.0000 O.3     1  UNL1       -0.3892
      3 O           3.7012   -0.7952    0.0000 O.3     1  UNL1       -0.3890
      4 O          12.1264    2.6361    0.0000 O.3     1  UNL1       -0.3892
      5 O           9.2229    4.4007    0.0000 O.2     1  UNL1       -0.2505
      6 O           4.8874   -3.1601    0.0000 O.3     1  UNL1       -0.3890
      7 C           6.5883    0.1303    0.0000 C.3     1  UNL1       -0.0257
      8 C           6.5184    1.1696    0.0000 C.3     1  UNL1       -0.0292
      9 C           7.3880    1.7430    0.0000 C.3     1  UNL1       -0.0000
     10 C           8.2890    1.3091    0.0000 C.3     1  UNL1       -0.0286
     11 C           5.6262   -0.2525    0.0000 C.3     1  UNL1       -0.0304
     12 C           9.1900    1.7430    0.0000 C.3     1  UNL1       -0.0135
     13 C           7.5268   -0.3217    0.0000 C.3     1  UNL1       -0.0468
     14 C           5.5138    1.4202    0.0000 C.3     1  UNL1       -0.0491
     15 C           8.3828    0.2717    0.0000 C.3     1  UNL1       -0.0488
     16 C           4.9634    0.5431    0.0000 C.3     1  UNL1       -0.0491
     17 C           5.3799   -1.2217    0.0000 C.3     1  UNL1       -0.0120
     18 C           9.4125    2.7179    0.0000 C.3     1  UNL1        0.0645
     19 C           6.6553   -0.8675    0.0000 C.3     1  UNL1       -0.0590
     20 C           7.1655    2.7179    0.0000 C.3     1  UNL1        0.0958
     21 C           9.9425    1.0228    0.0000 C.3     1  UNL1       -0.0180
     22 C           8.9674    0.7681    0.0000 C.3     1  UNL1       -0.0585
     23 C          10.4030    3.0402    0.0000 C.3     1  UNL1       -0.0110
     24 C          10.9402    1.3222    0.0000 C.3     1  UNL1        0.0816
     25 C           4.4174   -1.4931    0.0000 C.3     1  UNL1        0.0841
     26 C          11.1720    2.3377    0.0000 C.3     1  UNL1        0.0818
     27 C           8.7890    3.4997    0.0000 C.2     1  UNL1        0.3108
     28 C           6.0962   -1.9196    0.0000 C.3     1  UNL1       -0.0597
     29 C           4.1712   -2.4623    0.0000 C.3     1  UNL1        0.0841
     30 C           3.2087   -2.7336    0.0000 C.3     1  UNL1       -0.0130
     31 C           2.9625   -3.7028    0.0000 C.3     1  UNL1       -0.0417
     32 C           2.4925   -2.0358    0.0000 C.3     1  UNL1       -0.0597
     33 C           2.0000   -3.9742    0.0000 C.3     1  UNL1       -0.0623
     34 C           3.6787   -4.4007    0.0000 C.3     1  UNL1       -0.0623
     35 H           6.3753    2.0074    0.0000 H       1  UNL1        0.0310
     36 H           8.0526    2.2729    0.0000 H       1  UNL1        0.0339
     37 H           9.0284    0.8898    0.0000 H       1  UNL1        0.0310
     38 H           4.7972   -0.4404    0.0000 H       1  UNL1        0.0310
     39 H           7.1661   -0.8260    0.0000 H       1  UNL1        0.0271
     40 H           7.9619   -0.7633    0.0000 H       1  UNL1        0.0271
     41 H           5.7262    2.0026    0.0000 H       1  UNL1        0.0268
     42 H           4.9569    1.6927    0.0000 H       1  UNL1        0.0268
     43 H           8.6436   -0.2908    0.0000 H       1  UNL1        0.0268
     44 H           8.9816    0.4324    0.0000 H       1  UNL1        0.0268
     45 H           4.4758    0.9260    0.0000 H       1  UNL1        0.0268
     46 H           4.5314    0.0984    0.0000 H       1  UNL1        0.0268
     47 H           5.2272   -1.8226    0.0000 H       1  UNL1        0.0327
     48 H           9.6568    3.5320    0.0000 H       1  UNL1        0.0420
     49 H           6.0367   -0.9091    0.0000 H       1  UNL1        0.0235
     50 H           6.6969   -1.4861    0.0000 H       1  UNL1        0.0235
     51 H           7.2739   -0.8259    0.0000 H       1  UNL1        0.0235
     52 H           6.7789    3.2026    0.0000 H       1  UNL1        0.0700
     53 H           6.6069    2.4489    0.0000 H       1  UNL1        0.0700
     54 H           9.4435    0.6548    0.0000 H       1  UNL1        0.0296
     55 H          10.2197    0.4682    0.0000 H       1  UNL1        0.0296
     56 H           8.3630    0.9060    0.0000 H       1  UNL1        0.0235
     57 H           8.8295    0.1636    0.0000 H       1  UNL1        0.0235
     58 H           9.5719    0.6301    0.0000 H       1  UNL1        0.0235
     59 H          10.8933    3.4197    0.0000 H       1  UNL1        0.0299
     60 H          10.1131    3.5883    0.0000 H       1  UNL1        0.0299
     61 H          10.7988    0.7185    0.0000 H       1  UNL1        0.0619
     62 H           3.8207   -1.6613    0.0000 H       1  UNL1        0.0622
     63 H          11.3065    2.9429    0.0000 H       1  UNL1        0.0619
     64 H           5.6635   -2.3636    0.0000 H       1  UNL1        0.0233
     65 H           6.5402   -2.3522    0.0000 H       1  UNL1        0.0233
     66 H           6.5288   -1.4755    0.0000 H       1  UNL1        0.0233
     67 H           4.7679   -2.2940    0.0000 H       1  UNL1        0.0622
     68 H          12.2638    0.8196    0.0000 H       1  UNL1        0.2099
     69 H           3.3614   -2.1327    0.0000 H       1  UNL1        0.0326
     70 H           3.1045   -0.9635    0.0000 H       1  UNL1        0.2099
     71 H          12.2621    3.2411    0.0000 H       1  UNL1        0.2099
     72 H           2.8098   -4.3038    0.0000 H       1  UNL1        0.0299
     73 H           4.7348   -3.7611    0.0000 H       1  UNL1        0.2099
     74 H           2.9252   -1.5917    0.0000 H       1  UNL1        0.0233
     75 H           2.0484   -1.6031    0.0000 H       1  UNL1        0.0233
     76 H           2.0598   -2.4799    0.0000 H       1  UNL1        0.0233
     77 H           1.8318   -3.3775    0.0000 H       1  UNL1        0.0232
     78 H           1.4033   -4.1424    0.0000 H       1  UNL1        0.0232
     79 H           2.1682   -4.5710    0.0000 H       1  UNL1        0.0232
     80 H           3.2460   -4.8448    0.0000 H       1  UNL1        0.0232
     81 H           4.1228   -4.8334    0.0000 H       1  UNL1        0.0232
     82 H           4.1114   -3.9566    0.0000 H       1  UNL1        0.0232
@<TRIPOS>BOND
     1     1    20    1
     2     1    27    1
     3    24     2    1
     4     2    68    1
     5    25     3    1
     6     3    70    1
     7    26     4    1
     8     4    71    1
     9     5    27    2
    10    29     6    1
    11     6    73    1
    12     7     8    1
    13     7    11    1
    14     7    13    1
    15     7    19    1
    16     8     9    1
    17     8    14    1
    18     8    35    1
    19     9    10    1
    20     9    20    1
    21     9    36    1
    22    10    12    1
    23    10    15    1
    24    10    37    1
    25    11    16    1
    26    11    17    1
    27    11    38    1
    28    12    18    1
    29    12    21    1
    30    12    22    1
    31    13    15    1
    32    13    39    1
    33    13    40    1
    34    14    16    1
    35    14    41    1
    36    14    42    1
    37    15    43    1
    38    15    44    1
    39    16    45    1
    40    16    46    1
    41    17    25    1
    42    17    28    1
    43    17    47    1
    44    18    23    1
    45    18    27    1
    46    18    48    1
    47    19    49    1
    48    19    50    1
    49    19    51    1
    50    20    52    1
    51    20    53    1
    52    21    24    1
    53    21    54    1
    54    21    55    1
    55    22    56    1
    56    22    57    1
    57    22    58    1
    58    23    26    1
    59    23    59    1
    60    23    60    1
    61    24    26    1
    62    24    61    1
    63    25    29    1
    64    25    62    1
    65    26    63    1
    66    28    64    1
    67    28    65    1
    68    28    66    1
    69    29    30    1
    70    29    67    1
    71    30    31    1
    72    30    32    1
    73    30    69    1
    74    31    33    1
    75    31    34    1
    76    31    72    1
    77    32    74    1
    78    32    75    1
    79    32    76    1
    80    33    77    1
    81    33    78    1
    82    33    79    1
    83    34    80    1
    84    34    81    1
    85    34    82    1
