@<TRIPOS>MOLECULE
IMPHY012779
 63 68 0 0 0
SMALL
GASTEIGER

@<TRIPOS>ATOM
      1 O           7.8165    2.0618    0.0000 O.3     1  UNL1       -0.3719
      2 O           5.9631   -3.7174    0.0000 O.3     1  UNL1       -0.4929
      3 O           2.9757    0.1526    0.0000 O.3     1  UNL1       -0.4930
      4 O          10.1476    0.8103    0.0000 O.2     1  UNL1       -0.2876
      5 N           5.0981   -0.4464    0.0000 N.ar    1  UNL1       -0.3498
      6 N           7.6255   -1.5706    0.0000 N.ar    1  UNL1       -0.2542
      7 N          11.5923    2.1446    0.0000 N.ar    1  UNL1       -0.3524
      8 N           9.0650    3.2689    0.0000 N.ar    1  UNL1       -0.2499
      9 C           5.9071   -1.0342    0.0000 C.ar    1  UNL1        0.0727
     10 C           7.2205    0.1526    0.0000 C.3     1  UNL1       -0.0056
     11 C           8.1962    0.3718    0.0000 C.3     1  UNL1       -0.0138
     12 C           5.5981   -1.9852    0.0000 C.ar    1  UNL1        0.0524
     13 C           6.9225   -0.8019    0.0000 C.ar    1  UNL1        0.0654
     14 C           8.4942    1.3264    0.0000 C.3     1  UNL1        0.1226
     15 C           4.5981   -1.9852    0.0000 C.ar    1  UNL1        0.0146
     16 C           4.2891   -1.0342    0.0000 C.ar    1  UNL1        0.0899
     17 C           6.2831   -2.7700    0.0000 C.ar    1  UNL1        0.1478
     18 C          10.7833    2.7324    0.0000 C.ar    1  UNL1        0.0768
     19 C           9.4699    1.5456    0.0000 C.2     1  UNL1        0.2116
     20 C           9.7679    2.5002    0.0000 C.ar    1  UNL1        0.1325
     21 C          11.0923    3.6835    0.0000 C.ar    1  UNL1        0.0110
     22 C           3.2737   -0.8019    0.0000 C.ar    1  UNL1        0.1439
     23 C          12.0923    3.6835    0.0000 C.ar    1  UNL1        0.0075
     24 C           3.9131   -2.7700    0.0000 C.ar    1  UNL1       -0.0517
     25 C          12.4013    2.7324    0.0000 C.ar    1  UNL1        0.0475
     26 C           7.3036   -2.5613    0.0000 C.ar    1  UNL1        0.0702
     27 C           2.5707   -1.5706    0.0000 C.ar    1  UNL1       -0.0179
     28 C           2.8926   -2.5613    0.0000 C.ar    1  UNL1       -0.0576
     29 C          10.4073    4.4682    0.0000 C.ar    1  UNL1       -0.0338
     30 C          12.7773    4.4682    0.0000 C.ar    1  UNL1       -0.0520
     31 C          13.4167    2.5002    0.0000 C.ar    1  UNL1       -0.0378
     32 C           9.3868    4.2595    0.0000 C.ar    1  UNL1        0.0291
     33 C          13.7978    4.2595    0.0000 C.ar    1  UNL1       -0.0611
     34 C           6.8408    1.8426    0.0000 C.3     1  UNL1        0.0374
     35 C          14.1197    3.2689    0.0000 C.ar    1  UNL1       -0.0598
     36 C           6.6236   -4.4682    0.0000 C.3     1  UNL1        0.0789
     37 C           2.0000    0.3718    0.0000 C.3     1  UNL1        0.0789
     38 H           7.1917    0.7720    0.0000 H       1  UNL1        0.0330
     39 H           6.6056    0.2318    0.0000 H       1  UNL1        0.0330
     40 H           8.2250   -0.2475    0.0000 H       1  UNL1        0.0298
     41 H           8.8111    0.2927    0.0000 H       1  UNL1        0.0298
     42 H           8.6790    1.9182    0.0000 H       1  UNL1        0.0680
     43 H           5.0981    0.1736    0.0000 H       1  UNL1        0.1661
     44 H           4.1115   -3.3574    0.0000 H       1  UNL1        0.0624
     45 H          11.5923    1.5246    0.0000 H       1  UNL1        0.1660
     46 H           7.7167   -3.0236    0.0000 H       1  UNL1        0.0867
     47 H           1.9648   -1.4394    0.0000 H       1  UNL1        0.0655
     48 H           2.4795   -3.0236    0.0000 H       1  UNL1        0.0619
     49 H          10.6057    5.0556    0.0000 H       1  UNL1        0.0639
     50 H          12.5789    5.0556    0.0000 H       1  UNL1        0.0624
     51 H          13.6015    1.9084    0.0000 H       1  UNL1        0.0638
     52 H           8.9738    4.7219    0.0000 H       1  UNL1        0.0830
     53 H          14.2109    4.7219    0.0000 H       1  UNL1        0.0618
     54 H           6.7049    2.4475    0.0000 H       1  UNL1        0.0524
     55 H           6.2359    1.7066    0.0000 H       1  UNL1        0.0524
     56 H           6.9768    1.2376    0.0000 H       1  UNL1        0.0524
     57 H          14.7256    3.1376    0.0000 H       1  UNL1        0.0618
     58 H           6.1581   -4.8777    0.0000 H       1  UNL1        0.0660
     59 H           7.0331   -4.9337    0.0000 H       1  UNL1        0.0660
     60 H           7.0891   -4.0587    0.0000 H       1  UNL1        0.0660
     61 H           2.1359    0.9768    0.0000 H       1  UNL1        0.0660
     62 H           1.3951    0.5078    0.0000 H       1  UNL1        0.0660
     63 H           1.8641   -0.2331    0.0000 H       1  UNL1        0.0660
@<TRIPOS>BOND
     1     1    14    1
     2     1    34    1
     3     2    17    1
     4     2    36    1
     5     3    22    1
     6     3    37    1
     7     4    19    2
     8     5     9   ar
     9     5    16   ar
    10     5    43    1
    11     6    13   ar
    12     6    26   ar
    13     7    18   ar
    14     7    25   ar
    15     7    45    1
    16     8    20   ar
    17     8    32   ar
    18     9    12   ar
    19     9    13   ar
    20    10    11    1
    21    10    13    1
    22    10    38    1
    23    10    39    1
    24    11    14    1
    25    11    40    1
    26    11    41    1
    27    12    15   ar
    28    12    17   ar
    29    14    19    1
    30    14    42    1
    31    15    16   ar
    32    15    24   ar
    33    16    22   ar
    34    17    26   ar
    35    18    20   ar
    36    18    21   ar
    37    19    20    1
    38    21    23   ar
    39    21    29   ar
    40    22    27   ar
    41    23    25   ar
    42    23    30   ar
    43    24    28   ar
    44    24    44    1
    45    25    31   ar
    46    26    46    1
    47    27    28   ar
    48    27    47    1
    49    28    48    1
    50    29    32   ar
    51    29    49    1
    52    30    33   ar
    53    30    50    1
    54    31    35   ar
    55    31    51    1
    56    32    52    1
    57    33    35   ar
    58    33    53    1
    59    34    54    1
    60    34    55    1
    61    34    56    1
    62    35    57    1
    63    36    58    1
    64    36    59    1
    65    36    60    1
    66    37    61    1
    67    37    62    1
    68    37    63    1
