@<TRIPOS>MOLECULE
IMPHY001532
 35 36 0 0 0
SMALL
GASTEIGER

@<TRIPOS>ATOM
      1 O           6.3580   -1.6297    0.0000 O.2     1  UNL1       -0.4183
      2 O           2.8660   -1.5950    0.0000 O.3     1  UNL1       -0.4913
      3 O           4.5981   -2.5950    0.0000 O.3     1  UNL1       -0.5009
      4 O           8.1282   -1.6192    0.0000 O.2     1  UNL1       -0.2452
      5 C           4.5981    1.4050    0.0000 C.3     1  UNL1        0.0086
      6 C           4.5981    0.4050    0.0000 C.ar    1  UNL1       -0.0237
      7 C           5.4641   -0.0950    0.0000 C.ar    1  UNL1        0.0255
      8 C           3.5981    1.4050    0.0000 C.3     1  UNL1       -0.0523
      9 C           5.5981    1.4050    0.0000 C.3     1  UNL1       -0.0523
     10 C           3.7320   -0.0950    0.0000 C.ar    1  UNL1       -0.0115
     11 C           4.5981    2.4050    0.0000 C.2     1  UNL1       -0.0811
     12 C           5.4641   -1.0950    0.0000 C.ar    1  UNL1        0.1842
     13 C           3.7320   -1.0950    0.0000 C.ar    1  UNL1        0.1653
     14 C           4.5981   -1.5950    0.0000 C.ar    1  UNL1        0.2024
     15 C           6.3580    0.4397    0.0000 C.ar    1  UNL1       -0.0439
     16 C           7.2641   -0.0742    0.0000 C.ar    1  UNL1        0.0236
     17 C           3.7320    2.9050    0.0000 C.2     1  UNL1       -0.1018
     18 C           7.2641   -1.1158    0.0000 C.ar    1  UNL1        0.3373
     19 C           2.0000   -1.0950    0.0000 C.3     1  UNL1        0.0790
     20 H           5.5981    0.7850    0.0000 H       1  UNL1        0.0241
     21 H           6.2181    1.4050    0.0000 H       1  UNL1        0.0241
     22 H           3.5981    2.0250    0.0000 H       1  UNL1        0.0241
     23 H           2.9781    1.4050    0.0000 H       1  UNL1        0.0241
     24 H           3.5981    0.7850    0.0000 H       1  UNL1        0.0241
     25 H           5.5981    2.0250    0.0000 H       1  UNL1        0.0241
     26 H           3.1951    0.2150    0.0000 H       1  UNL1        0.0658
     27 H           5.1350    2.7150    0.0000 H       1  UNL1        0.0575
     28 H           6.3509    1.0596    0.0000 H       1  UNL1        0.0627
     29 H           7.7998    0.2379    0.0000 H       1  UNL1        0.0689
     30 H           3.7320    3.5250    0.0000 H       1  UNL1        0.0532
     31 H           3.1951    2.5950    0.0000 H       1  UNL1        0.0532
     32 H           4.0611   -2.9050    0.0000 H       1  UNL1        0.2924
     33 H           2.3100   -0.5581    0.0000 H       1  UNL1        0.0660
     34 H           1.4631   -0.7850    0.0000 H       1  UNL1        0.0660
     35 H           1.6900   -1.6319    0.0000 H       1  UNL1        0.0660
@<TRIPOS>BOND
     1     1    12   ar
     2     1    18   ar
     3     2    13    1
     4     2    19    1
     5     3    14    1
     6     3    32    1
     7     4    18    2
     8     5     6    1
     9     5     8    1
    10     5     9    1
    11     5    11    1
    12     6     7   ar
    13     6    10   ar
    14     7    12   ar
    15     7    15   ar
    16     8    22    1
    17     8    23    1
    18     8    24    1
    19     9    20    1
    20     9    21    1
    21     9    25    1
    22    10    13   ar
    23    10    26    1
    24    11    17    2
    25    11    27    1
    26    12    14   ar
    27    13    14   ar
    28    15    16   ar
    29    15    28    1
    30    16    18   ar
    31    16    29    1
    32    17    30    1
    33    17    31    1
    34    19    33    1
    35    19    34    1
    36    19    35    1
