@<TRIPOS>MOLECULE
IMPHY009013
 73 77 0 0 0
SMALL
GASTEIGER

@<TRIPOS>ATOM
      1 CL          5.2805   -3.7549    0.0000 Cl      1  UNL1       -0.1187
      2 O           7.1640    1.4348    0.0000 O.3     1  UNL1       -0.3844
      3 O           3.8674   -3.3699    0.0000 O.3     1  UNL1       -0.3832
      4 O           8.8678    0.2596    0.0000 O.3     1  UNL1       -0.3823
      5 O           2.9435   -3.9197    0.0000 O.3     1  UNL1       -0.3848
      6 O           2.9755    0.2355    0.0000 O.2     1  UNL1       -0.2920
      7 O           8.9886    2.6507    0.0000 O.3     1  UNL1       -0.4548
      8 O           9.6958    4.2318    0.0000 O.2     1  UNL1       -0.2453
      9 C           4.7931   -0.8215    0.0000 C.3     1  UNL1       -0.0192
     10 C           6.5251    0.1785    0.0000 C.3     1  UNL1        0.0210
     11 C           5.6591   -1.3215    0.0000 C.3     1  UNL1       -0.0141
     12 C           3.8831   -1.3284    0.0000 C.3     1  UNL1        0.0662
     13 C           6.5251   -0.8215    0.0000 C.2     1  UNL1       -0.0612
     14 C           7.4714    0.4832    0.0000 C.3     1  UNL1        0.1101
     15 C           3.8751   -2.3700    0.0000 C.3     1  UNL1        0.1239
     16 C           4.7931    0.1785    0.0000 C.3     1  UNL1       -0.0478
     17 C           5.6591    0.6785    0.0000 C.3     1  UNL1       -0.0409
     18 C           5.6752   -2.3630    0.0000 C.3     1  UNL1       -0.0270
     19 C           4.7771   -2.8908    0.0000 C.3     1  UNL1        0.0669
     20 C           8.0550   -0.3215    0.0000 C.3     1  UNL1       -0.0018
     21 C           8.2814    1.0696    0.0000 C.3     1  UNL1        0.1298
     22 C           7.4714   -1.1263    0.0000 C.2     1  UNL1       -0.0810
     23 C           6.1831    1.1182    0.0000 C.3     1  UNL1       -0.0531
     24 C           2.9396   -2.9197    0.0000 C.3     1  UNL1        0.1047
     25 C           3.8908   -0.3284    0.0000 C.3     1  UNL1       -0.0494
     26 C           2.9562   -0.7643    0.0000 C.2     1  UNL1        0.1649
     27 C           9.0914    1.6560    0.0000 C.3     1  UNL1        0.1380
     28 C           7.6950    1.8796    0.0000 C.3     1  UNL1       -0.0298
     29 C           2.0000   -2.3772    0.0000 C.2     1  UNL1       -0.0498
     30 C           2.0084   -1.2922    0.0000 C.2     1  UNL1       -0.0200
     31 C          10.0043    1.2477    0.0000 C.3     1  UNL1        0.0089
     32 C          10.8143    1.8340    0.0000 C.2     1  UNL1       -0.0594
     33 C           9.7986    3.2371    0.0000 C.2     1  UNL1        0.3352
     34 C          10.7115    2.8287    0.0000 C.2     1  UNL1        0.0326
     35 C          11.7271    1.4257    0.0000 C.3     1  UNL1       -0.0429
     36 C          11.5215    3.4151    0.0000 C.3     1  UNL1       -0.0330
     37 H           5.3300   -0.5115    0.0000 H       1  UNL1        0.0317
     38 H           6.1984   -1.6274    0.0000 H       1  UNL1        0.0349
     39 H           4.5810    0.7611    0.0000 H       1  UNL1        0.0269
     40 H           4.1825    0.0708    0.0000 H       1  UNL1        0.0269
     41 H           6.0576    1.1534    0.0000 H       1  UNL1        0.0275
     42 H           5.2606    1.1534    0.0000 H       1  UNL1        0.0275
     43 H           5.8932   -2.9434    0.0000 H       1  UNL1        0.0286
     44 H           6.2843   -2.2475    0.0000 H       1  UNL1        0.0286
     45 H           4.3396   -3.3300    0.0000 H       1  UNL1        0.0495
     46 H           8.5158   -0.7363    0.0000 H       1  UNL1        0.0336
     47 H           8.5158    0.0932    0.0000 H       1  UNL1        0.0336
     48 H           7.6640   -1.7156    0.0000 H       1  UNL1        0.0573
     49 H           6.7657    1.3302    0.0000 H       1  UNL1        0.0239
     50 H           5.9711    1.7008    0.0000 H       1  UNL1        0.0239
     51 H           5.6005    0.9061    0.0000 H       1  UNL1        0.0239
     52 H           3.4784   -3.2266    0.0000 H       1  UNL1        0.0667
     53 H           4.5108   -0.3332    0.0000 H       1  UNL1        0.0240
     54 H           3.8956    0.2916    0.0000 H       1  UNL1        0.0240
     55 H           3.2708   -0.3236    0.0000 H       1  UNL1        0.0240
     56 H           8.5255    1.9091    0.0000 H       1  UNL1        0.0767
     57 H           6.6388    1.7642    0.0000 H       1  UNL1        0.2103
     58 H           4.1732   -3.9092    0.0000 H       1  UNL1        0.2104
     59 H           8.1972    2.2432    0.0000 H       1  UNL1        0.0259
     60 H           7.3314    2.3818    0.0000 H       1  UNL1        0.0259
     61 H           7.1928    1.5161    0.0000 H       1  UNL1        0.0259
     62 H           1.4619   -2.6851    0.0000 H       1  UNL1        0.0599
     63 H           1.4750   -0.9761    0.0000 H       1  UNL1        0.0650
     64 H           9.4845    0.3233    0.0000 H       1  UNL1        0.2104
     65 H           9.6567    0.7343    0.0000 H       1  UNL1        0.0347
     66 H          10.4495    0.8162    0.0000 H       1  UNL1        0.0347
     67 H           2.4078   -4.2318    0.0000 H       1  UNL1        0.2103
     68 H          11.4740    0.8598    0.0000 H       1  UNL1        0.0275
     69 H          12.2931    1.1726    0.0000 H       1  UNL1        0.0275
     70 H          11.9803    1.9917    0.0000 H       1  UNL1        0.0275
     71 H          11.8851    2.9129    0.0000 H       1  UNL1        0.0280
     72 H          12.0237    3.7787    0.0000 H       1  UNL1        0.0280
     73 H          11.1580    3.9174    0.0000 H       1  UNL1        0.0280
@<TRIPOS>BOND
     1     1    19    1
     2     2    14    1
     3     2    57    1
     4     3    15    1
     5     3    58    1
     6     4    21    1
     7     4    64    1
     8     5    24    1
     9     5    67    1
    10     6    26    2
    11     7    27    1
    12     7    33    1
    13     8    33    2
    14     9    11    1
    15     9    12    1
    16     9    16    1
    17     9    37    1
    18    10    13    1
    19    10    14    1
    20    10    17    1
    21    10    23    1
    22    11    13    1
    23    11    18    1
    24    11    38    1
    25    12    15    1
    26    12    25    1
    27    12    26    1
    28    13    22    2
    29    14    20    1
    30    14    21    1
    31    15    19    1
    32    15    24    1
    33    16    17    1
    34    16    39    1
    35    16    40    1
    36    17    41    1
    37    17    42    1
    38    18    19    1
    39    18    43    1
    40    18    44    1
    41    19    45    1
    42    20    22    1
    43    20    46    1
    44    20    47    1
    45    21    27    1
    46    21    28    1
    47    22    48    1
    48    23    49    1
    49    23    50    1
    50    23    51    1
    51    24    29    1
    52    24    52    1
    53    25    53    1
    54    25    54    1
    55    25    55    1
    56    26    30    1
    57    27    31    1
    58    27    56    1
    59    28    59    1
    60    28    60    1
    61    28    61    1
    62    29    30    2
    63    29    62    1
    64    30    63    1
    65    31    32    1
    66    31    65    1
    67    31    66    1
    68    32    34    2
    69    32    35    1
    70    33    34    1
    71    34    36    1
    72    35    68    1
    73    35    69    1
    74    35    70    1
    75    36    71    1
    76    36    72    1
    77    36    73    1
