@<TRIPOS>MOLECULE
IMPHY005227
 73 78 0 0 0
SMALL
GASTEIGER

@<TRIPOS>ATOM
      1 O           3.7998   -3.3698    0.0000 O.3     1  UNL1       -0.3607
      2 O           7.1381    1.4428    0.0000 O.3     1  UNL1       -0.3851
      3 O           2.9176   -3.9040    0.0000 O.3     1  UNL1       -0.3848
      4 O           8.8328    0.2545    0.0000 O.3     1  UNL1       -0.3823
      5 O           2.9176    0.1652    0.0000 O.2     1  UNL1       -0.2920
      6 O           8.9720    2.6446    0.0000 O.3     1  UNL1       -0.4548
      7 O           9.6914    4.2202    0.0000 O.2     1  UNL1       -0.2453
      8 C           5.5321   -1.3694    0.0000 C.3     1  UNL1       -0.0314
      9 C           3.8000   -2.3694    0.0000 C.3     1  UNL1        0.1376
     10 C           4.6660   -0.8694    0.0000 C.3     1  UNL1       -0.0226
     11 C           6.4421   -0.8625    0.0000 C.3     1  UNL1       -0.0296
     12 C           3.8000   -1.3694    0.0000 C.3     1  UNL1        0.0673
     13 C           6.4501    0.1791    0.0000 C.3     1  UNL1        0.0026
     14 C           4.6660   -2.8694    0.0000 C.3     1  UNL1        0.0925
     15 C           5.5321   -2.3694    0.0000 C.3     1  UNL1       -0.0203
     16 C           7.4381    0.4889    0.0000 C.3     1  UNL1        0.1034
     17 C           4.6500    0.1721    0.0000 C.3     1  UNL1       -0.0484
     18 C           5.5480    0.6999    0.0000 C.3     1  UNL1       -0.0444
     19 C           7.4252   -1.1876    0.0000 C.3     1  UNL1       -0.0467
     20 C           8.0396   -0.3540    0.0000 C.3     1  UNL1       -0.0204
     21 C           2.9061   -2.9040    0.0000 C.3     1  UNL1        0.1060
     22 C           8.2526    1.0690    0.0000 C.3     1  UNL1        0.1292
     23 C           3.8000   -0.3694    0.0000 C.3     1  UNL1       -0.0494
     24 C           6.1153    1.1214    0.0000 C.3     1  UNL1       -0.0566
     25 C           2.9061   -0.8347    0.0000 C.2     1  UNL1        0.1649
     26 C           2.0000   -2.3902    0.0000 C.2     1  UNL1       -0.0497
     27 C           2.0000   -1.3486    0.0000 C.2     1  UNL1       -0.0200
     28 C           9.0672    1.6491    0.0000 C.3     1  UNL1        0.1380
     29 C           7.6725    1.8835    0.0000 C.3     1  UNL1       -0.0298
     30 C           9.9768    1.2338    0.0000 C.3     1  UNL1        0.0089
     31 C          10.7914    1.8139    0.0000 C.2     1  UNL1       -0.0594
     32 C           9.7866    3.2247    0.0000 C.2     1  UNL1        0.3352
     33 C          10.6962    2.8094    0.0000 C.2     1  UNL1        0.0326
     34 C          11.7010    1.3986    0.0000 C.3     1  UNL1       -0.0429
     35 C          11.5108    3.3895    0.0000 C.3     1  UNL1       -0.0330
     36 H           6.2649   -1.8000    0.0000 H       1  UNL1        0.0307
     37 H           5.3989   -0.4387    0.0000 H       1  UNL1        0.0314
     38 H           6.5222   -1.7088    0.0000 H       1  UNL1        0.0310
     39 H           5.0911   -3.6054    0.0000 H       1  UNL1        0.0626
     40 H           5.7441   -2.9520    0.0000 H       1  UNL1        0.0294
     41 H           6.1426   -2.2617    0.0000 H       1  UNL1        0.0294
     42 H           4.4319    0.7525    0.0000 H       1  UNL1        0.0268
     43 H           4.0408    0.0566    0.0000 H       1  UNL1        0.0268
     44 H           5.9453    1.1758    0.0000 H       1  UNL1        0.0272
     45 H           5.1470    1.1728    0.0000 H       1  UNL1        0.0272
     46 H           7.1698   -1.7525    0.0000 H       1  UNL1        0.0269
     47 H           7.9602   -1.5009    0.0000 H       1  UNL1        0.0269
     48 H           8.4972   -0.7723    0.0000 H       1  UNL1        0.0294
     49 H           8.5036    0.0571    0.0000 H       1  UNL1        0.0294
     50 H           2.3721   -3.2192    0.0000 H       1  UNL1        0.0668
     51 H           4.4200   -0.3694    0.0000 H       1  UNL1        0.0240
     52 H           3.8000    0.2506    0.0000 H       1  UNL1        0.0240
     53 H           3.1800   -0.3694    0.0000 H       1  UNL1        0.0240
     54 H           6.6996    1.3289    0.0000 H       1  UNL1        0.0236
     55 H           5.9078    1.7056    0.0000 H       1  UNL1        0.0236
     56 H           5.5311    0.9138    0.0000 H       1  UNL1        0.0236
     57 H           1.4643   -2.7023    0.0000 H       1  UNL1        0.0599
     58 H           1.4643   -1.0365    0.0000 H       1  UNL1        0.0650
     59 H           6.6154    1.7763    0.0000 H       1  UNL1        0.2103
     60 H           8.2940    2.0022    0.0000 H       1  UNL1        0.0767
     61 H           8.1775    2.2432    0.0000 H       1  UNL1        0.0259
     62 H           7.3128    2.3885    0.0000 H       1  UNL1        0.0259
     63 H           7.1675    1.5238    0.0000 H       1  UNL1        0.0259
     64 H           2.3843   -4.2202    0.0000 H       1  UNL1        0.2103
     65 H           9.4500    0.3134    0.0000 H       1  UNL1        0.2104
     66 H           9.6253    0.7231    0.0000 H       1  UNL1        0.0347
     67 H          10.4187    0.7989    0.0000 H       1  UNL1        0.0347
     68 H          11.4435    0.8346    0.0000 H       1  UNL1        0.0275
     69 H          12.2650    1.1410    0.0000 H       1  UNL1        0.0275
     70 H          11.9586    1.9626    0.0000 H       1  UNL1        0.0275
     71 H          11.8704    2.8845    0.0000 H       1  UNL1        0.0280
     72 H          12.0158    3.7492    0.0000 H       1  UNL1        0.0280
     73 H          11.1511    3.8945    0.0000 H       1  UNL1        0.0280
@<TRIPOS>BOND
     1     9     1    1
     2     1    14    1
     3    16     2    1
     4     2    59    1
     5    21     3    1
     6     3    64    1
     7    22     4    1
     8     4    65    1
     9     5    25    2
    10     6    28    1
    11     6    32    1
    12     7    32    2
    13     8    10    1
    14     8    11    1
    15     8    15    1
    16     8    36    1
    17     9    12    1
    18     9    14    1
    19     9    21    1
    20    10    12    1
    21    10    17    1
    22    10    37    1
    23    11    13    1
    24    11    19    1
    25    11    38    1
    26    12    23    1
    27    12    25    1
    28    13    16    1
    29    13    18    1
    30    13    24    1
    31    14    15    1
    32    14    39    1
    33    15    40    1
    34    15    41    1
    35    16    20    1
    36    16    22    1
    37    17    18    1
    38    17    42    1
    39    17    43    1
    40    18    44    1
    41    18    45    1
    42    19    20    1
    43    19    46    1
    44    19    47    1
    45    20    48    1
    46    20    49    1
    47    21    26    1
    48    21    50    1
    49    22    28    1
    50    22    29    1
    51    23    51    1
    52    23    52    1
    53    23    53    1
    54    24    54    1
    55    24    55    1
    56    24    56    1
    57    25    27    1
    58    26    27    2
    59    26    57    1
    60    27    58    1
    61    28    30    1
    62    28    60    1
    63    29    61    1
    64    29    62    1
    65    29    63    1
    66    30    31    1
    67    30    66    1
    68    30    67    1
    69    31    33    2
    70    31    34    1
    71    32    33    1
    72    33    35    1
    73    34    68    1
    74    34    69    1
    75    34    70    1
    76    35    71    1
    77    35    72    1
    78    35    73    1
