@<TRIPOS>MOLECULE
IMPHY012831
 15 14 0 0 0
SMALL
GASTEIGER

@<TRIPOS>ATOM
      1 O           2.8660    0.2500    0.0000 O.3     1  UNL1       -0.4649
      2 O           3.7320   -1.2500    0.0000 O.2     1  UNL1       -0.2456
      3 O           7.1962   -0.2500    0.0000 O.3     1  UNL1       -0.4775
      4 O           6.3301    1.2500    0.0000 O.2     1  UNL1       -0.2458
      5 C           4.5981    0.2500    0.0000 C.2     1  UNL1        0.0292
      6 C           3.7320   -0.2500    0.0000 C.2     1  UNL1        0.3319
      7 C           5.4641   -0.2500    0.0000 C.2     1  UNL1        0.0291
      8 C           2.0000   -0.2500    0.0000 C.3     1  UNL1        0.0820
      9 C           6.3301    0.2500    0.0000 C.2     1  UNL1        0.3298
     10 H           4.5981    0.8700    0.0000 H       1  UNL1        0.0691
     11 H           5.4641   -0.8700    0.0000 H       1  UNL1        0.0691
     12 H           1.6900    0.2869    0.0000 H       1  UNL1        0.0661
     13 H           1.4631   -0.5600    0.0000 H       1  UNL1        0.0661
     14 H           2.3100   -0.7869    0.0000 H       1  UNL1        0.0661
     15 H           7.7331    0.0600    0.0000 H       1  UNL1        0.2954
@<TRIPOS>BOND
     1     1     6    1
     2     1     8    1
     3     2     6    2
     4     3     9    1
     5     3    15    1
     6     4     9    2
     7     5     6    1
     8     5     7    2
     9     5    10    1
    10     7     9    1
    11     7    11    1
    12     8    12    1
    13     8    13    1
    14     8    14    1
