@<TRIPOS>MOLECULE
IMPHY015251
 56 55 0 0 0
SMALL
GASTEIGER

@<TRIPOS>ATOM
      1 O          16.7224    0.1900    0.0000 O.3     1  UNL1       -0.3910
      2 C           8.0622    0.1900    0.0000 C.3     1  UNL1       -0.0531
      3 C           7.1962    0.6900    0.0000 C.3     1  UNL1       -0.0530
      4 C           8.9282    0.6900    0.0000 C.3     1  UNL1       -0.0531
      5 C           6.3301    0.1900    0.0000 C.3     1  UNL1       -0.0525
      6 C           9.7942    0.1900    0.0000 C.3     1  UNL1       -0.0531
      7 C           5.4641    0.6900    0.0000 C.3     1  UNL1       -0.0470
      8 C          10.6603    0.6900    0.0000 C.3     1  UNL1       -0.0530
      9 C           4.5981    0.1900    0.0000 C.3     1  UNL1       -0.0257
     10 C          11.5263    0.1900    0.0000 C.3     1  UNL1       -0.0528
     11 C          12.3923    0.6900    0.0000 C.3     1  UNL1       -0.0496
     12 C           4.5981   -0.8100    0.0000 C.3     1  UNL1       -0.0590
     13 C           3.7320    0.6900    0.0000 C.2     1  UNL1       -0.0851
     14 C          13.2583    0.1900    0.0000 C.3     1  UNL1       -0.0347
     15 C           2.8660    0.1900    0.0000 C.2     1  UNL1       -0.0879
     16 C          14.1244    0.6900    0.0000 C.2     1  UNL1       -0.0858
     17 C           2.8660   -0.8100    0.0000 C.3     1  UNL1       -0.0376
     18 C          14.9904    0.1900    0.0000 C.2     1  UNL1       -0.0629
     19 C           2.0000   -1.3100    0.0000 C.3     1  UNL1       -0.0618
     20 C          15.8564    0.6900    0.0000 C.3     1  UNL1        0.0624
     21 H           7.6636   -0.2849    0.0000 H       1  UNL1        0.0265
     22 H           8.4607   -0.2849    0.0000 H       1  UNL1        0.0265
     23 H           7.5947    1.1650    0.0000 H       1  UNL1        0.0265
     24 H           6.7976    1.1650    0.0000 H       1  UNL1        0.0265
     25 H           9.3267    1.1650    0.0000 H       1  UNL1        0.0265
     26 H           8.5297    1.1650    0.0000 H       1  UNL1        0.0265
     27 H           5.9316   -0.2849    0.0000 H       1  UNL1        0.0265
     28 H           6.7287   -0.2849    0.0000 H       1  UNL1        0.0265
     29 H           9.3957   -0.2849    0.0000 H       1  UNL1        0.0265
     30 H          10.1928   -0.2849    0.0000 H       1  UNL1        0.0265
     31 H           5.8626    1.1650    0.0000 H       1  UNL1        0.0271
     32 H           5.0656    1.1650    0.0000 H       1  UNL1        0.0271
     33 H          11.0588    1.1650    0.0000 H       1  UNL1        0.0265
     34 H          10.2617    1.1650    0.0000 H       1  UNL1        0.0265
     35 H           5.1350   -0.1200    0.0000 H       1  UNL1        0.0340
     36 H          11.1278   -0.2849    0.0000 H       1  UNL1        0.0265
     37 H          11.9248   -0.2849    0.0000 H       1  UNL1        0.0265
     38 H          12.7908    1.1650    0.0000 H       1  UNL1        0.0268
     39 H          11.9938    1.1650    0.0000 H       1  UNL1        0.0268
     40 H           3.9781   -0.8100    0.0000 H       1  UNL1        0.0235
     41 H           4.5981   -1.4300    0.0000 H       1  UNL1        0.0235
     42 H           5.2181   -0.8100    0.0000 H       1  UNL1        0.0235
     43 H           3.7320    1.3100    0.0000 H       1  UNL1        0.0572
     44 H          12.8598   -0.2849    0.0000 H       1  UNL1        0.0307
     45 H          13.6569   -0.2849    0.0000 H       1  UNL1        0.0307
     46 H           2.3291    0.5000    0.0000 H       1  UNL1        0.0569
     47 H          14.1244    1.3100    0.0000 H       1  UNL1        0.0570
     48 H           3.0781   -1.3926    0.0000 H       1  UNL1        0.0305
     49 H           3.4766   -0.7023    0.0000 H       1  UNL1        0.0305
     50 H          14.9904   -0.4300    0.0000 H       1  UNL1        0.0591
     51 H           1.6900   -0.7731    0.0000 H       1  UNL1        0.0233
     52 H           1.4631   -1.6200    0.0000 H       1  UNL1        0.0233
     53 H           2.3100   -1.8469    0.0000 H       1  UNL1        0.0233
     54 H          16.2549    1.1650    0.0000 H       1  UNL1        0.0601
     55 H          15.4579    1.1650    0.0000 H       1  UNL1        0.0601
     56 H          17.2594    0.5000    0.0000 H       1  UNL1        0.2098
@<TRIPOS>BOND
     1     1    20    1
     2     1    56    1
     3     2     3    1
     4     2     4    1
     5     2    21    1
     6     2    22    1
     7     3     5    1
     8     3    23    1
     9     3    24    1
    10     4     6    1
    11     4    25    1
    12     4    26    1
    13     5     7    1
    14     5    27    1
    15     5    28    1
    16     6     8    1
    17     6    29    1
    18     6    30    1
    19     7     9    1
    20     7    31    1
    21     7    32    1
    22     8    10    1
    23     8    33    1
    24     8    34    1
    25     9    12    1
    26     9    13    1
    27     9    35    1
    28    10    11    1
    29    10    36    1
    30    10    37    1
    31    11    14    1
    32    11    38    1
    33    11    39    1
    34    12    40    1
    35    12    41    1
    36    12    42    1
    37    13    15    2
    38    13    43    1
    39    14    16    1
    40    14    44    1
    41    14    45    1
    42    15    17    1
    43    15    46    1
    44    16    18    2
    45    16    47    1
    46    17    19    1
    47    17    48    1
    48    17    49    1
    49    18    20    1
    50    18    50    1
    51    19    51    1
    52    19    52    1
    53    19    53    1
    54    20    54    1
    55    20    55    1
