@<TRIPOS>MOLECULE
IMPHY017766
 46 46 0 0 0
SMALL
GASTEIGER

@<TRIPOS>ATOM
      1 O           2.8660   -3.1550    0.0000 O.3     1  UNL1       -0.4920
      2 O           8.0622    5.8450    0.0000 O.3     1  UNL1       -0.4806
      3 O           8.9282    4.3450    0.0000 O.2     1  UNL1       -0.2510
      4 C           5.4641    0.3450    0.0000 C.3     1  UNL1       -0.0531
      5 C           5.4641    1.3450    0.0000 C.3     1  UNL1       -0.0531
      6 C           4.5981   -0.1550    0.0000 C.3     1  UNL1       -0.0530
      7 C           6.3301    1.8450    0.0000 C.3     1  UNL1       -0.0530
      8 C           4.5981   -1.1550    0.0000 C.3     1  UNL1       -0.0500
      9 C           6.3301    2.8450    0.0000 C.3     1  UNL1       -0.0526
     10 C           3.7320   -1.6550    0.0000 C.3     1  UNL1       -0.0186
     11 C           7.1962    3.3450    0.0000 C.3     1  UNL1       -0.0430
     12 C           3.7320   -2.6550    0.0000 C.3     1  UNL1        0.0896
     13 C           7.1962    4.3450    0.0000 C.3     1  UNL1        0.0448
     14 C           8.0622    4.8450    0.0000 C.2     1  UNL1        0.3047
     15 C           2.8660   -4.1550    0.0000 C.ar    1  UNL1        0.1205
     16 C           2.0000   -4.6550    0.0000 C.ar    1  UNL1       -0.0199
     17 C           3.7320   -4.6550    0.0000 C.ar    1  UNL1       -0.0199
     18 C           2.0000   -5.6550    0.0000 C.ar    1  UNL1       -0.0583
     19 C           3.7320   -5.6550    0.0000 C.ar    1  UNL1       -0.0583
     20 C           2.8660   -6.1550    0.0000 C.ar    1  UNL1       -0.0615
     21 H           5.6762   -0.2376    0.0000 H       1  UNL1        0.0265
     22 H           6.0747    0.4527    0.0000 H       1  UNL1        0.0265
     23 H           5.2520    1.9276    0.0000 H       1  UNL1        0.0265
     24 H           4.8535    1.2373    0.0000 H       1  UNL1        0.0265
     25 H           4.3860    0.4276    0.0000 H       1  UNL1        0.0265
     26 H           3.9875   -0.2627    0.0000 H       1  UNL1        0.0265
     27 H           6.5422    1.2624    0.0000 H       1  UNL1        0.0265
     28 H           6.9407    1.9527    0.0000 H       1  UNL1        0.0265
     29 H           4.8101   -1.7376    0.0000 H       1  UNL1        0.0266
     30 H           5.2087   -1.0473    0.0000 H       1  UNL1        0.0266
     31 H           6.1181    3.4276    0.0000 H       1  UNL1        0.0265
     32 H           5.7196    2.7373    0.0000 H       1  UNL1        0.0265
     33 H           3.5200   -1.0724    0.0000 H       1  UNL1        0.0298
     34 H           3.1215   -1.7627    0.0000 H       1  UNL1        0.0298
     35 H           7.4082    2.7624    0.0000 H       1  UNL1        0.0270
     36 H           7.8067    3.4527    0.0000 H       1  UNL1        0.0270
     37 H           3.9441   -3.2376    0.0000 H       1  UNL1        0.0696
     38 H           4.3426   -2.5473    0.0000 H       1  UNL1        0.0696
     39 H           6.9841    4.9276    0.0000 H       1  UNL1        0.0377
     40 H           6.5856    4.2373    0.0000 H       1  UNL1        0.0377
     41 H           1.4631   -4.3450    0.0000 H       1  UNL1        0.0654
     42 H           4.2690   -4.3450    0.0000 H       1  UNL1        0.0654
     43 H           8.5991    6.1550    0.0000 H       1  UNL1        0.2951
     44 H           1.4631   -5.9650    0.0000 H       1  UNL1        0.0619
     45 H           4.2690   -5.9650    0.0000 H       1  UNL1        0.0619
     46 H           2.8660   -6.7750    0.0000 H       1  UNL1        0.0618
@<TRIPOS>BOND
     1     1    12    1
     2     1    15    1
     3     2    14    1
     4     2    43    1
     5     3    14    2
     6     4     5    1
     7     4     6    1
     8     4    21    1
     9     4    22    1
    10     5     7    1
    11     5    23    1
    12     5    24    1
    13     6     8    1
    14     6    25    1
    15     6    26    1
    16     7     9    1
    17     7    27    1
    18     7    28    1
    19     8    10    1
    20     8    29    1
    21     8    30    1
    22     9    11    1
    23     9    31    1
    24     9    32    1
    25    10    12    1
    26    10    33    1
    27    10    34    1
    28    11    13    1
    29    11    35    1
    30    11    36    1
    31    12    37    1
    32    12    38    1
    33    13    14    1
    34    13    39    1
    35    13    40    1
    36    15    16   ar
    37    15    17   ar
    38    16    18   ar
    39    16    41    1
    40    17    19   ar
    41    17    42    1
    42    18    20   ar
    43    18    44    1
    44    19    20   ar
    45    19    45    1
    46    20    46    1
