@<TRIPOS>MOLECULE
IMPHY002309
 57 61 0 0 0
SMALL
GASTEIGER

@<TRIPOS>ATOM
      1 O           4.0350   -0.7526    0.0000 O.3     1  UNL1       -0.4674
      2 O           2.5932    3.9978    0.0000 O.3     1  UNL1       -0.3917
      3 O           5.5438   -0.4865    0.0000 O.2     1  UNL1       -0.2501
      4 O           6.9618    0.1744    0.0000 O.2     1  UNL1       -0.2897
      5 O           6.2259   -3.7498    0.0000 O.3     1  UNL1       -0.4951
      6 N           5.2018    2.4532    0.0000 N.3     1  UNL1       -0.2976
      7 N           4.3928   -0.1346    0.0000 N.pl3   1  UNL1       -0.3300
      8 C           4.3358    0.9532    0.0000 C.3     1  UNL1        0.1119
      9 C           4.3358    1.9532    0.0000 C.3     1  UNL1        0.0337
     10 C           5.2018    0.4532    0.0000 C.3     1  UNL1        0.1136
     11 C           2.5357    0.9324    0.0000 C.3     1  UNL1       -0.0267
     12 C           3.4418    2.4878    0.0000 C.3     1  UNL1        0.0018
     13 C           3.4418    0.4185    0.0000 C.3     1  UNL1       -0.0293
     14 C           2.5357    1.9740    0.0000 C.3     1  UNL1       -0.0424
     15 C           4.3078    0.9232    0.0000 C.3     1  UNL1        0.0021
     16 C           6.0678    0.9532    0.0000 C.3     1  UNL1       -0.0105
     17 C           6.0678    1.9532    0.0000 C.3     1  UNL1        0.0016
     18 C           4.6779    0.0135    0.0000 C.2     1  UNL1        0.3171
     19 C           3.4534    3.4878    0.0000 C.3     1  UNL1        0.0567
     20 C           6.0108   -0.1346    0.0000 C.2     1  UNL1        0.1893
     21 C           5.7018   -1.0857    0.0000 C.ar    1  UNL1        0.0439
     22 C           4.7018   -1.0857    0.0000 C.ar    1  UNL1        0.0388
     23 C           4.3251    3.9777    0.0000 C.3     1  UNL1       -0.0386
     24 C           6.2364   -1.9796    0.0000 C.ar    1  UNL1       -0.0076
     25 C           4.1671   -1.9796    0.0000 C.ar    1  UNL1       -0.0367
     26 C           3.0503   -0.5789    0.0000 C.3     1  UNL1        0.0817
     27 C           5.7226   -2.8857    0.0000 C.ar    1  UNL1        0.1209
     28 C           4.6810   -2.8857    0.0000 C.ar    1  UNL1       -0.0182
     29 C           5.7293   -4.6177    0.0000 C.3     1  UNL1        0.0788
     30 H           4.3358    2.8032    0.0000 H       1  UNL1        0.0478
     31 H           1.8013    0.5045    0.0000 H       1  UNL1        0.0314
     32 H           2.7098    2.9199    0.0000 H       1  UNL1        0.0341
     33 H           3.0482   -0.0605    0.0000 H       1  UNL1        0.0280
     34 H           3.8464   -0.0513    0.0000 H       1  UNL1        0.0280
     35 H           2.3267    2.5577    0.0000 H       1  UNL1        0.0272
     36 H           1.9249    1.8679    0.0000 H       1  UNL1        0.0272
     37 H           4.1969    0.3131    0.0000 H       1  UNL1        0.0429
     38 H           4.8893    0.7081    0.0000 H       1  UNL1        0.0429
     39 H           6.2798    0.3706    0.0000 H       1  UNL1        0.0303
     40 H           6.6784    1.0608    0.0000 H       1  UNL1        0.0303
     41 H           6.6784    1.8455    0.0000 H       1  UNL1        0.0427
     42 H           6.2798    2.5358    0.0000 H       1  UNL1        0.0427
     43 H           3.4605    4.1077    0.0000 H       1  UNL1        0.0594
     44 H           3.7731   -0.1562    0.0000 H       1  UNL1        0.1471
     45 H           4.6289    3.4372    0.0000 H       1  UNL1        0.0255
     46 H           4.8656    4.2815    0.0000 H       1  UNL1        0.0255
     47 H           4.0214    4.5182    0.0000 H       1  UNL1        0.0255
     48 H           2.6004    4.6177    0.0000 H       1  UNL1        0.2098
     49 H           6.8564   -1.9724    0.0000 H       1  UNL1        0.0662
     50 H           3.5472   -1.9724    0.0000 H       1  UNL1        0.0637
     51 H           3.1579    0.0317    0.0000 H       1  UNL1        0.0661
     52 H           2.4397   -0.4712    0.0000 H       1  UNL1        0.0661
     53 H           2.9426   -1.1895    0.0000 H       1  UNL1        0.0661
     54 H           4.3689   -3.4214    0.0000 H       1  UNL1        0.0655
     55 H           5.1911   -4.3098    0.0000 H       1  UNL1        0.0660
     56 H           5.4213   -5.1558    0.0000 H       1  UNL1        0.0660
     57 H           6.2674   -4.9256    0.0000 H       1  UNL1        0.0660
@<TRIPOS>BOND
     1     1    18    1
     2     1    26    1
     3    19     2    1
     4     2    48    1
     5     3    18    2
     6     4    20    2
     7     5    27    1
     8     5    29    1
     9     6     9    1
    10     6    15    1
    11     6    17    1
    12    10     7    1
    13     7    22    1
    14     7    44    1
    15     8     9    1
    16     8    10    1
    17     8    13    1
    18     8    18    1
    19     9    12    1
    20     9    30    1
    21    10    16    1
    22    10    20    1
    23    11    13    1
    24    11    14    1
    25    11    15    1
    26    11    31    1
    27    12    14    1
    28    12    19    1
    29    12    32    1
    30    13    33    1
    31    13    34    1
    32    14    35    1
    33    14    36    1
    34    15    37    1
    35    15    38    1
    36    16    17    1
    37    16    39    1
    38    16    40    1
    39    17    41    1
    40    17    42    1
    41    19    23    1
    42    19    43    1
    43    20    21    1
    44    21    22   ar
    45    21    24   ar
    46    22    25   ar
    47    23    45    1
    48    23    46    1
    49    23    47    1
    50    24    27   ar
    51    24    49    1
    52    25    28   ar
    53    25    50    1
    54    26    51    1
    55    26    52    1
    56    26    53    1
    57    27    28   ar
    58    28    54    1
    59    29    55    1
    60    29    56    1
    61    29    57    1
