@<TRIPOS>MOLECULE
IMPHY002210
 46 48 0 0 0
SMALL
GASTEIGER

@<TRIPOS>ATOM
      1 O           6.0682   -0.1481    0.0000 O.3     1  UNL1       -0.4799
      2 O           7.8003    1.8518    0.0000 O.3     1  UNL1       -0.3798
      3 O           6.0682    2.8519    0.0000 O.2     1  UNL1       -0.2889
      4 O           4.3198    2.8864    0.0000 O.3     1  UNL1       -0.5058
      5 O           2.5381   -0.1723    0.0000 O.3     1  UNL1       -0.5062
      6 O          10.3984   -1.6482    0.0000 O.3     1  UNL1       -0.5068
      7 C           6.9343    0.3519    0.0000 C.3     1  UNL1        0.1581
      8 C           6.9343    1.3518    0.0000 C.3     1  UNL1        0.1585
      9 C           5.2022    0.3519    0.0000 C.ar    1  UNL1        0.1425
     10 C           5.2022    1.3518    0.0000 C.ar    1  UNL1        0.1036
     11 C           6.0682    1.8518    0.0000 C.2     1  UNL1        0.2024
     12 C           4.3083   -0.1828    0.0000 C.ar    1  UNL1        0.0403
     13 C           7.8003   -0.1481    0.0000 C.ar    1  UNL1       -0.0042
     14 C           4.3083    1.8865    0.0000 C.ar    1  UNL1        0.1344
     15 C           4.3198   -1.1827    0.0000 C.3     1  UNL1       -0.0023
     16 C           3.4022    0.3310    0.0000 C.ar    1  UNL1        0.1273
     17 C           3.4022    1.3727    0.0000 C.ar    1  UNL1        0.0225
     18 C           7.8003   -1.1482    0.0000 C.ar    1  UNL1       -0.0515
     19 C           8.6663    0.3519    0.0000 C.ar    1  UNL1       -0.0515
     20 C           3.4597   -1.6927    0.0000 C.2     1  UNL1       -0.0807
     21 C           8.6663   -1.6482    0.0000 C.ar    1  UNL1       -0.0198
     22 C           9.5323   -0.1481    0.0000 C.ar    1  UNL1       -0.0198
     23 C           9.5323   -1.1482    0.0000 C.ar    1  UNL1        0.1169
     24 C           3.4712   -2.6927    0.0000 C.2     1  UNL1       -0.0793
     25 C           2.6110   -3.2026    0.0000 C.3     1  UNL1       -0.0440
     26 C           4.3430   -3.1826    0.0000 C.3     1  UNL1       -0.0440
     27 H           6.9343   -0.2681    0.0000 H       1  UNL1        0.0815
     28 H           6.9343    1.9718    0.0000 H       1  UNL1        0.0718
     29 H           4.5386   -1.7629    0.0000 H       1  UNL1        0.0358
     30 H           4.9291   -1.0680    0.0000 H       1  UNL1        0.0358
     31 H           2.8665    1.6847    0.0000 H       1  UNL1        0.0691
     32 H           7.2634   -1.4582    0.0000 H       1  UNL1        0.0623
     33 H           8.6663    0.9719    0.0000 H       1  UNL1        0.0623
     34 H           7.8003    2.4718    0.0000 H       1  UNL1        0.2105
     35 H           2.9192   -1.3889    0.0000 H       1  UNL1        0.0575
     36 H           8.6663   -2.2682    0.0000 H       1  UNL1        0.0654
     37 H          10.0693    0.1619    0.0000 H       1  UNL1        0.0654
     38 H           3.7865    3.2026    0.0000 H       1  UNL1        0.2922
     39 H           2.0000    0.1356    0.0000 H       1  UNL1        0.2921
     40 H           4.0392   -3.7231    0.0000 H       1  UNL1        0.0274
     41 H           4.8835   -3.4864    0.0000 H       1  UNL1        0.0274
     42 H           2.2948   -2.6693    0.0000 H       1  UNL1        0.0274
     43 H           2.0777   -3.5188    0.0000 H       1  UNL1        0.0274
     44 H           2.9272   -3.7360    0.0000 H       1  UNL1        0.0274
     45 H           4.6468   -2.6421    0.0000 H       1  UNL1        0.0274
     46 H          10.3984   -2.2682    0.0000 H       1  UNL1        0.2921
@<TRIPOS>BOND
     1     1     7    1
     2     1     9    1
     3     8     2    1
     4     2    34    1
     5     3    11    2
     6     4    14    1
     7     4    38    1
     8     5    16    1
     9     5    39    1
    10     6    23    1
    11     6    46    1
    12     7     8    1
    13     7    13    1
    14     7    27    1
    15     8    11    1
    16     8    28    1
    17     9    10   ar
    18     9    12   ar
    19    10    11    1
    20    10    14   ar
    21    12    15    1
    22    12    16   ar
    23    13    18   ar
    24    13    19   ar
    25    14    17   ar
    26    15    20    1
    27    15    29    1
    28    15    30    1
    29    16    17   ar
    30    17    31    1
    31    18    21   ar
    32    18    32    1
    33    19    22   ar
    34    19    33    1
    35    20    24    2
    36    20    35    1
    37    21    23   ar
    38    21    36    1
    39    22    23   ar
    40    22    37    1
    41    24    25    1
    42    24    26    1
    43    25    42    1
    44    25    43    1
    45    25    44    1
    46    26    40    1
    47    26    41    1
    48    26    45    1
