@<TRIPOS>MOLECULE
IMPHY011838
 39 39 0 0 0
SMALL
GASTEIGER

@<TRIPOS>ATOM
      1 C           4.5981   -0.7500    0.0000 C.2     1  UNL1       -0.0665
      2 C           3.7320   -1.2500    0.0000 C.3     1  UNL1       -0.0275
      3 C           3.7320   -2.2500    0.0000 C.3     1  UNL1       -0.0283
      4 C           5.4641   -1.2500    0.0000 C.3     1  UNL1       -0.0130
      5 C           4.5981    0.2500    0.0000 C.2     1  UNL1       -0.0728
      6 C           4.5981   -2.7500    0.0000 C.2     1  UNL1       -0.0759
      7 C           3.7320    0.7500    0.0000 C.3     1  UNL1       -0.0283
      8 C           5.4641   -2.2500    0.0000 C.2     1  UNL1       -0.0810
      9 C           3.7320    1.7500    0.0000 C.3     1  UNL1       -0.0308
     10 C           5.4641    0.7500    0.0000 C.3     1  UNL1       -0.0435
     11 C           4.5981   -3.7500    0.0000 C.3     1  UNL1       -0.0438
     12 C           2.8660    2.2500    0.0000 C.2     1  UNL1       -0.0850
     13 C           2.8660    3.2500    0.0000 C.2     1  UNL1       -0.0796
     14 C           2.0000    3.7500    0.0000 C.3     1  UNL1       -0.0440
     15 C           3.7320    3.7500    0.0000 C.3     1  UNL1       -0.0440
     16 H           3.5200   -0.6674    0.0000 H       1  UNL1        0.0313
     17 H           3.1215   -1.3577    0.0000 H       1  UNL1        0.0313
     18 H           3.1215   -2.1423    0.0000 H       1  UNL1        0.0313
     19 H           3.5200   -2.8326    0.0000 H       1  UNL1        0.0313
     20 H           6.0747   -1.3577    0.0000 H       1  UNL1        0.0352
     21 H           5.6762   -0.6674    0.0000 H       1  UNL1        0.0352
     22 H           3.1215    0.8577    0.0000 H       1  UNL1        0.0313
     23 H           3.5200    0.1674    0.0000 H       1  UNL1        0.0313
     24 H           6.0010   -2.5600    0.0000 H       1  UNL1        0.0575
     25 H           4.3426    1.6423    0.0000 H       1  UNL1        0.0310
     26 H           3.9441    2.3326    0.0000 H       1  UNL1        0.0310
     27 H           5.7741    0.2131    0.0000 H       1  UNL1        0.0274
     28 H           6.0010    1.0600    0.0000 H       1  UNL1        0.0274
     29 H           5.1541    1.2869    0.0000 H       1  UNL1        0.0274
     30 H           3.9781   -3.7500    0.0000 H       1  UNL1        0.0274
     31 H           4.5981   -4.3700    0.0000 H       1  UNL1        0.0274
     32 H           5.2181   -3.7500    0.0000 H       1  UNL1        0.0274
     33 H           2.3291    1.9400    0.0000 H       1  UNL1        0.0572
     34 H           2.3100    4.2869    0.0000 H       1  UNL1        0.0274
     35 H           1.4631    4.0600    0.0000 H       1  UNL1        0.0274
     36 H           1.6900    3.2131    0.0000 H       1  UNL1        0.0274
     37 H           4.0420    3.2131    0.0000 H       1  UNL1        0.0274
     38 H           4.2690    4.0600    0.0000 H       1  UNL1        0.0274
     39 H           3.4220    4.2869    0.0000 H       1  UNL1        0.0274
@<TRIPOS>BOND
     1     1     2    1
     2     1     4    1
     3     1     5    2
     4     2     3    1
     5     2    16    1
     6     2    17    1
     7     3     6    1
     8     3    18    1
     9     3    19    1
    10     4     8    1
    11     4    20    1
    12     4    21    1
    13     5     7    1
    14     5    10    1
    15     6     8    2
    16     6    11    1
    17     7     9    1
    18     7    22    1
    19     7    23    1
    20     8    24    1
    21     9    12    1
    22     9    25    1
    23     9    26    1
    24    10    27    1
    25    10    28    1
    26    10    29    1
    27    11    30    1
    28    11    31    1
    29    11    32    1
    30    12    13    2
    31    12    33    1
    32    13    14    1
    33    13    15    1
    34    14    34    1
    35    14    35    1
    36    14    36    1
    37    15    37    1
    38    15    38    1
    39    15    39    1
