@<TRIPOS>MOLECULE
IMPHY008695
 30 31 0 0 0
SMALL
GASTEIGER

@<TRIPOS>ATOM
      1 O           7.2566    1.9615    0.0000 O.3     1  TRP1       -0.4795
      2 OXT         5.6103    2.4996    0.0000 O.2     1  TRP1       -0.2492
      3 NE1         4.6783   -1.9615    0.0000 N.ar    1  TRP1       -0.3604
      4 N           6.6353    0.0604    0.0000 N.3     1  TRP1       -0.3069
      5 CB          4.9889    0.5985    0.0000 C.3     1  TRP1        0.0001
      6 CG          4.6783   -0.3520    0.0000 C.ar    1  TRP1       -0.0204
      7 CA          5.9674    0.8047    0.0000 C.3     1  TRP1        0.1095
      8 CD2         3.7320   -0.6567    0.0000 C.ar    1  TRP1        0.0029
      9 CE2         3.7320   -1.6567    0.0000 C.ar    1  TRP1        0.0467
     10 CD1         5.2619   -1.1567    0.0000 C.ar    1  TRP1        0.0060
     11 CE3         2.8660   -0.1567    0.0000 C.ar    1  TRP1       -0.0523
     12 CZ2         2.8660   -2.1567    0.0000 C.ar    1  TRP1       -0.0378
     13 C           6.2781    1.7552    0.0000 C.2     1  TRP1        0.3222
     14 CZ3         2.0000   -0.6567    0.0000 C.ar    1  TRP1       -0.0611
     15 CH2         2.0000   -1.6567    0.0000 C.ar    1  TRP1       -0.0598
     16 C           7.6138    0.2666    0.0000 C.3     0  UNK0       -0.0151
     17 HB1         4.9684    1.2182    0.0000 H       1  TRP1        0.0334
     18 HB2         4.3751    0.6859    0.0000 H       1  TRP1        0.0334
     19 HA          5.7748    0.2154    0.0000 H       1  TRP1        0.0579
     20 HD1         5.8819   -1.1567    0.0000 H       1  TRP1        0.0810
     21 HE1         4.8709   -2.5508    0.0000 H       1  TRP1        0.1653
     22 H           6.4427   -0.5289    0.0000 H       1  TRP1        0.1224
     23 HE3         2.8660    0.4633    0.0000 H       1  TRP1        0.0624
     24 HZ2         2.8660   -2.7767    0.0000 H       1  TRP1        0.0638
     25 HZ3         1.4631   -0.3467    0.0000 H       1  TRP1        0.0618
     26 HH2         1.4631   -1.9667    0.0000 H       1  TRP1        0.0618
     27 H           7.7416   -0.3400    0.0000 H       0  UNK0        0.0388
     28 H           8.2205    0.3945    0.0000 H       0  UNK0        0.0388
     29 H           7.4859    0.8733    0.0000 H       0  UNK0        0.0388
     30 H           7.4492    2.5508    0.0000 H       1  TRP1        0.2951
@<TRIPOS>BOND
     1     1    13    1
     2     1    30    1
     3     2    13    2
     4     3     9   ar
     5     3    10   ar
     6     3    21    1
     7     7     4    1
     8     4    16    1
     9     4    22    1
    10     5     6    1
    11     5     7    1
    12     5    17    1
    13     5    18    1
    14     6     8   ar
    15     6    10   ar
    16     7    13    1
    17     7    19    1
    18     8     9   ar
    19     8    11   ar
    20     9    12   ar
    21    10    20    1
    22    11    14   ar
    23    11    23    1
    24    12    15   ar
    25    12    24    1
    26    14    15   ar
    27    14    25    1
    28    15    26    1
    29    16    27    1
    30    16    28    1
    31    16    29    1
