@<TRIPOS>MOLECULE
IMPHY005155
 44 45 0 0 0
SMALL
GASTEIGER

@<TRIPOS>ATOM
      1 O           5.2904   -0.2065    0.0000 O.3     1  UNL1       -0.4624
      2 O           3.3852    2.8546    0.0000 O.3     1  UNL1       -0.3857
      3 O           3.3341    0.2093    0.0000 O.3     1  UNL1       -0.3782
      4 O           5.6505    1.4877    0.0000 O.2     1  UNL1       -0.2478
      5 N           7.5286   -2.6745    0.0000 N.3     1  UNL1       -0.2990
      6 C           7.5286   -1.6745    0.0000 C.3     1  UNL1        0.0164
      7 C           6.5776   -1.3655    0.0000 C.3     1  UNL1        0.0101
      8 C           8.4748   -1.3698    0.0000 C.3     1  UNL1       -0.0358
      9 C           5.9898   -2.1745    0.0000 C.3     1  UNL1       -0.0328
     10 C           6.5776   -2.9835    0.0000 C.3     1  UNL1       -0.0004
     11 C           8.4748   -2.9792    0.0000 C.3     1  UNL1       -0.0008
     12 C           9.0584   -2.1745    0.0000 C.3     1  UNL1       -0.0388
     13 C           6.2685   -0.4144    0.0000 C.3     1  UNL1        0.0968
     14 C           4.9814    0.7446    0.0000 C.2     1  UNL1        0.3389
     15 C           4.0032    0.9525    0.0000 C.3     1  UNL1        0.1800
     16 C           3.6942    1.9035    0.0000 C.3     1  UNL1        0.0992
     17 C           2.7431    1.5945    0.0000 C.3     1  UNL1       -0.0241
     18 C           4.6453    2.2125    0.0000 C.3     1  UNL1       -0.0331
     19 C           2.0000    2.2636    0.0000 C.3     1  UNL1       -0.0626
     20 H           7.5297   -0.8245    0.0000 H       1  UNL1        0.0466
     21 H           7.1786   -0.7644    0.0000 H       1  UNL1        0.0349
     22 H           9.0122   -1.0605    0.0000 H       1  UNL1        0.0281
     23 H           8.2238   -0.8028    0.0000 H       1  UNL1        0.0281
     24 H           5.5290   -1.7596    0.0000 H       1  UNL1        0.0282
     25 H           5.5290   -2.5893    0.0000 H       1  UNL1        0.0282
     26 H           6.0406   -3.2935    0.0000 H       1  UNL1        0.0427
     27 H           6.8297   -3.5499    0.0000 H       1  UNL1        0.0427
     28 H           8.2238   -3.5461    0.0000 H       1  UNL1        0.0427
     29 H           9.0122   -3.2884    0.0000 H       1  UNL1        0.0427
     30 H           9.5193   -2.5892    0.0000 H       1  UNL1        0.0278
     31 H           9.5193   -1.7598    0.0000 H       1  UNL1        0.0278
     32 H           6.8825   -0.3281    0.0000 H       1  UNL1        0.0701
     33 H           6.2902    0.2052    0.0000 H       1  UNL1        0.0701
     34 H           3.1718    1.1292    0.0000 H       1  UNL1        0.0740
     35 H           2.2546    1.2128    0.0000 H       1  UNL1        0.0291
     36 H           3.0342    1.0471    0.0000 H       1  UNL1        0.0291
     37 H           4.8368    1.6229    0.0000 H       1  UNL1        0.0258
     38 H           5.2349    2.4041    0.0000 H       1  UNL1        0.0258
     39 H           4.4537    2.8022    0.0000 H       1  UNL1        0.0258
     40 H           2.4149    2.7244    0.0000 H       1  UNL1        0.0231
     41 H           1.5392    2.6785    0.0000 H       1  UNL1        0.0231
     42 H           1.5851    1.8029    0.0000 H       1  UNL1        0.0231
     43 H           2.7787    2.9835    0.0000 H       1  UNL1        0.2103
     44 H           3.5257   -0.3803    0.0000 H       1  UNL1        0.2106
@<TRIPOS>BOND
     1     1    13    1
     2     1    14    1
     3     2    16    1
     4     2    43    1
     5     3    15    1
     6     3    44    1
     7     4    14    2
     8     5     6    1
     9     5    10    1
    10     5    11    1
    11     6     7    1
    12     6     8    1
    13     6    20    1
    14     7     9    1
    15     7    13    1
    16     7    21    1
    17     8    12    1
    18     8    22    1
    19     8    23    1
    20     9    10    1
    21     9    24    1
    22     9    25    1
    23    10    26    1
    24    10    27    1
    25    11    12    1
    26    11    28    1
    27    11    29    1
    28    12    30    1
    29    12    31    1
    30    13    32    1
    31    13    33    1
    32    14    15    1
    33    15    16    1
    34    15    34    1
    35    16    17    1
    36    16    18    1
    37    17    19    1
    38    17    35    1
    39    17    36    1
    40    18    37    1
    41    18    38    1
    42    18    39    1
    43    19    40    1
    44    19    41    1
    45    19    42    1
