@<TRIPOS>MOLECULE
IMPHY006651
 53 56 0 0 0
SMALL
GASTEIGER

@<TRIPOS>ATOM
      1 O          10.6506   -0.7378    0.0000 O.3     1  UNL1       -0.4526
      2 O          10.1506    0.7920    0.0000 O.3     1  UNL1       -0.4526
      3 O           4.5981    3.6318    0.0000 O.3     1  UNL1       -0.4907
      4 O           2.8660    2.6318    0.0000 O.3     1  UNL1       -0.4914
      5 O           6.7210    3.3870    0.0000 O.2     1  UNL1       -0.2697
      6 N           6.9939    1.6318    0.0000 N.am    1  UNL1       -0.2808
      7 N           8.6315   -3.1813    0.0000 N.3     1  UNL1       -0.3080
      8 C           8.0102   -1.2802    0.0000 C.ar    1  UNL1       -0.0353
      9 C           7.3423   -2.0245    0.0000 C.3     1  UNL1       -0.0142
     10 C           7.6995   -0.3297    0.0000 C.ar    1  UNL1       -0.0164
     11 C           6.4103    0.8270    0.0000 C.2     1  UNL1        0.0423
     12 C           7.6530   -2.9750    0.0000 C.3     1  UNL1        0.0023
     13 C           5.4641    1.1318    0.0000 C.ar    1  UNL1        0.0121
     14 C           6.7210   -0.1235    0.0000 C.2     1  UNL1       -0.0323
     15 C           8.9887   -1.4864    0.0000 C.ar    1  UNL1       -0.0124
     16 C           5.4641    2.1318    0.0000 C.ar    1  UNL1        0.0911
     17 C           8.3673    0.4146    0.0000 C.ar    1  UNL1       -0.0087
     18 C           9.6565   -0.7421    0.0000 C.ar    1  UNL1        0.1665
     19 C           9.3458    0.2084    0.0000 C.ar    1  UNL1        0.1668
     20 C           6.4103    2.4365    0.0000 C.2     1  UNL1        0.2526
     21 C           4.5981    2.6318    0.0000 C.ar    1  UNL1        0.1742
     22 C           4.5981    0.6318    0.0000 C.ar    1  UNL1       -0.0484
     23 C           3.7320    2.1318    0.0000 C.ar    1  UNL1        0.1623
     24 C          10.9553    0.2084    0.0000 C.3     1  UNL1        0.2332
     25 C           3.7320    1.1318    0.0000 C.ar    1  UNL1       -0.0156
     26 C           8.9421   -4.1318    0.0000 C.3     1  UNL1       -0.0130
     27 C           9.2993   -2.4370    0.0000 C.3     1  UNL1       -0.0130
     28 C           3.7320    4.1318    0.0000 C.3     1  UNL1        0.0790
     29 C           2.0000    2.1318    0.0000 C.3     1  UNL1        0.0790
     30 H           6.9598   -1.5366    0.0000 H       1  UNL1        0.0326
     31 H           6.7954   -2.3165    0.0000 H       1  UNL1        0.0326
     32 H           7.0392   -3.0624    0.0000 H       1  UNL1        0.0429
     33 H           7.6324   -3.5947    0.0000 H       1  UNL1        0.0429
     34 H           6.3069   -0.5849    0.0000 H       1  UNL1        0.0642
     35 H           9.1813   -2.0758    0.0000 H       1  UNL1        0.0658
     36 H           8.1747    1.0039    0.0000 H       1  UNL1        0.0661
     37 H           7.6139    1.6318    0.0000 H       1  UNL1        0.1552
     38 H           4.5981    0.0118    0.0000 H       1  UNL1        0.0625
     39 H          11.5222   -0.0426    0.0000 H       1  UNL1        0.1166
     40 H          11.2645    0.7458    0.0000 H       1  UNL1        0.1166
     41 H           3.1951    0.8218    0.0000 H       1  UNL1        0.0655
     42 H           8.3528   -4.3244    0.0000 H       1  UNL1        0.0391
     43 H           9.7608   -2.8510    0.0000 H       1  UNL1        0.0391
     44 H           9.7134   -1.9755    0.0000 H       1  UNL1        0.0391
     45 H           8.8378   -2.0229    0.0000 H       1  UNL1        0.0391
     46 H           9.1348   -4.7211    0.0000 H       1  UNL1        0.0391
     47 H           9.5315   -3.9392    0.0000 H       1  UNL1        0.0391
     48 H           4.0420    4.6687    0.0000 H       1  UNL1        0.0660
     49 H           3.1951    4.4418    0.0000 H       1  UNL1        0.0660
     50 H           3.4220    3.5948    0.0000 H       1  UNL1        0.0660
     51 H           1.6900    2.6687    0.0000 H       1  UNL1        0.0660
     52 H           1.4631    1.8218    0.0000 H       1  UNL1        0.0660
     53 H           2.3100    1.5948    0.0000 H       1  UNL1        0.0660
@<TRIPOS>BOND
     1     1    18    1
     2     1    24    1
     3     2    19    1
     4     2    24    1
     5     3    21    1
     6     3    28    1
     7     4    23    1
     8     4    29    1
     9     5    20    2
    10     6    11    1
    11     6    20   am
    12     6    37    1
    13     7    12    1
    14     7    26    1
    15     7    27    1
    16     8     9    1
    17     8    10   ar
    18     8    15   ar
    19     9    12    1
    20     9    30    1
    21     9    31    1
    22    10    14    1
    23    10    17   ar
    24    11    13    1
    25    11    14    2
    26    12    32    1
    27    12    33    1
    28    13    16   ar
    29    13    22   ar
    30    14    34    1
    31    15    18   ar
    32    15    35    1
    33    16    20    1
    34    16    21   ar
    35    17    19   ar
    36    17    36    1
    37    18    19   ar
    38    21    23   ar
    39    22    25   ar
    40    22    38    1
    41    23    25   ar
    42    24    39    1
    43    24    40    1
    44    25    41    1
    45    26    42    1
    46    26    46    1
    47    26    47    1
    48    27    43    1
    49    27    44    1
    50    27    45    1
    51    28    48    1
    52    28    49    1
    53    28    50    1
    54    29    51    1
    55    29    52    1
    56    29    53    1
