@<TRIPOS>MOLECULE
IMPHY003154
 75 79 0 0 0
SMALL
GASTEIGER

@<TRIPOS>ATOM
      1 O           9.6736   -1.1132    0.0000 O.3     1  UNL1       -0.3093
      2 O          10.5396    0.3868    0.0000 O.2     1  UNL1       -0.4699
      3 O           7.9416   -1.1132    0.0000 O.3     1  UNL1       -0.3404
      4 O           9.6736   -3.1132    0.0000 O.3     1  UNL1       -0.3841
      5 O           7.9416   -4.1132    0.0000 O.3     1  UNL1       -0.3864
      6 O           6.2095   -3.1132    0.0000 O.3     1  UNL1       -0.3865
      7 O          11.3012    2.4792    0.0000 O.3     1  UNL1       -0.4646
      8 O           5.3435   -1.6132    0.0000 O.3     1  UNL1       -0.3924
      9 O           9.9744    3.5926    0.0000 O.2     1  UNL1       -0.2452
     10 N           7.6513    3.6330    0.0000 N.3     1  UNL1       -0.3078
     11 N           5.7522    1.6218    0.0000 N.ar    1  UNL1       -0.3565
     12 C           8.8076    1.3868    0.0000 C.3     1  UNL1        0.0075
     13 C           7.2988    2.6529    0.0000 C.3     1  UNL1        0.0489
     14 C           7.9416    1.8868    0.0000 C.3     1  UNL1       -0.0241
     15 C           8.8076    0.3868    0.0000 C.3     1  UNL1        0.0467
     16 C           6.2723    2.4759    0.0000 C.ar    1  UNL1        0.0374
     17 C           9.6736   -0.1132    0.0000 C.3     1  UNL1        0.2102
     18 C           5.6207    3.2345    0.0000 C.ar    1  UNL1       -0.0164
     19 C           9.6736    1.8868    0.0000 C.2     1  UNL1        0.0746
     20 C           5.9504    4.2226    0.0000 C.3     1  UNL1       -0.0128
     21 C           6.9725    4.4232    0.0000 C.3     1  UNL1        0.0005
     22 C           8.8076   -1.6132    0.0000 C.3     1  UNL1        0.1918
     23 C           8.8076   -2.6132    0.0000 C.3     1  UNL1        0.1342
     24 C           7.9416   -3.1132    0.0000 C.3     1  UNL1        0.1141
     25 C           7.0755   -2.6132    0.0000 C.3     1  UNL1        0.1119
     26 C           4.6979    2.8492    0.0000 C.ar    1  UNL1        0.0034
     27 C           7.0755   -1.6132    0.0000 C.3     1  UNL1        0.1130
     28 C           7.9416   -0.1132    0.0000 C.2     1  UNL1       -0.0816
     29 C           4.7792    1.8525    0.0000 C.ar    1  UNL1        0.0470
     30 C          10.5396    1.3868    0.0000 C.2     1  UNL1        0.0981
     31 C          10.3164    2.6529    0.0000 C.2     1  UNL1        0.3381
     32 C           6.2095   -1.1132    0.0000 C.3     1  UNL1        0.0730
     33 C           3.7634    3.3094    0.0000 C.ar    1  UNL1       -0.0494
     34 C           3.9317    1.2470    0.0000 C.ar    1  UNL1       -0.0375
     35 C           2.9021    2.7236    0.0000 C.ar    1  UNL1       -0.0498
     36 C           7.0755    0.3868    0.0000 C.2     1  UNL1       -0.1022
     37 C           2.9868    1.6854    0.0000 C.ar    1  UNL1       -0.0569
     38 C           2.0000    3.1551    0.0000 C.3     1  UNL1       -0.0397
     39 C          11.6432    1.5395    0.0000 C.3     1  UNL1        0.0820
     40 H           8.2707    1.0768    0.0000 H       1  UNL1        0.0360
     41 H           7.9092    2.7617    0.0000 H       1  UNL1        0.0525
     42 H           7.3476    1.7090    0.0000 H       1  UNL1        0.0290
     43 H           8.3401    2.3618    0.0000 H       1  UNL1        0.0290
     44 H           9.7554    0.0768    0.0000 H       1  UNL1        0.0410
     45 H           9.1367   -0.4232    0.0000 H       1  UNL1        0.1062
     46 H           8.2610    3.7454    0.0000 H       1  UNL1        0.1226
     47 H           5.9369    4.8424    0.0000 H       1  UNL1        0.0326
     48 H           5.3374    4.3153    0.0000 H       1  UNL1        0.0326
     49 H           7.5050    4.7407    0.0000 H       1  UNL1        0.0427
     50 H           6.7508    5.0022    0.0000 H       1  UNL1        0.0427
     51 H           8.8076   -0.9932    0.0000 H       1  UNL1        0.0939
     52 H           8.8076   -3.2332    0.0000 H       1  UNL1        0.0671
     53 H           7.4046   -3.4232    0.0000 H       1  UNL1        0.0648
     54 H           6.5386   -2.3032    0.0000 H       1  UNL1        0.0647
     55 H           7.0755   -0.9932    0.0000 H       1  UNL1        0.0647
     56 H           5.9911    1.0497    0.0000 H       1  UNL1        0.1656
     57 H           7.9416   -0.7332    0.0000 H       1  UNL1        0.0571
     58 H          11.0766    1.6968    0.0000 H       1  UNL1        0.1029
     59 H           6.6080   -0.6382    0.0000 H       1  UNL1        0.0584
     60 H           5.8110   -0.6382    0.0000 H       1  UNL1        0.0584
     61 H           3.7202    3.9279    0.0000 H       1  UNL1        0.0627
     62 H           3.9892    0.6296    0.0000 H       1  UNL1        0.0638
     63 H          10.2106   -2.8032    0.0000 H       1  UNL1        0.2101
     64 H           7.0755    1.0068    0.0000 H       1  UNL1        0.0532
     65 H           6.5386    0.0768    0.0000 H       1  UNL1        0.0532
     66 H           8.4785   -4.4232    0.0000 H       1  UNL1        0.2100
     67 H           6.2095   -3.7332    0.0000 H       1  UNL1        0.2100
     68 H           2.4782    1.3309    0.0000 H       1  UNL1        0.0621
     69 H           2.2675    3.7144    0.0000 H       1  UNL1        0.0278
     70 H           1.4407    3.4225    0.0000 H       1  UNL1        0.0278
     71 H           1.7325    2.5957    0.0000 H       1  UNL1        0.0278
     72 H           4.8066   -1.3032    0.0000 H       1  UNL1        0.2095
     73 H          11.0606    1.3275    0.0000 H       1  UNL1        0.0661
     74 H          11.8553    0.9569    0.0000 H       1  UNL1        0.0661
     75 H          12.2258    1.7516    0.0000 H       1  UNL1        0.0661
@<TRIPOS>BOND
     1    17     1    1
     2    22     1    1
     3     2    17    1
     4     2    30    1
     5     3    22    1
     6     3    27    1
     7    23     4    1
     8     4    63    1
     9    24     5    1
    10     5    66    1
    11    25     6    1
    12     6    67    1
    13     7    31    1
    14     7    39    1
    15     8    32    1
    16     8    72    1
    17     9    31    2
    18    10    13    1
    19    10    21    1
    20    10    46    1
    21    11    16   ar
    22    11    29   ar
    23    11    56    1
    24    12    14    1
    25    12    15    1
    26    12    19    1
    27    12    40    1
    28    13    14    1
    29    13    16    1
    30    13    41    1
    31    14    42    1
    32    14    43    1
    33    15    17    1
    34    15    28    1
    35    15    44    1
    36    16    18   ar
    37    17    45    1
    38    18    20    1
    39    18    26   ar
    40    19    30    2
    41    19    31    1
    42    20    21    1
    43    20    47    1
    44    20    48    1
    45    21    49    1
    46    21    50    1
    47    22    23    1
    48    22    51    1
    49    23    24    1
    50    23    52    1
    51    24    25    1
    52    24    53    1
    53    25    27    1
    54    25    54    1
    55    26    29   ar
    56    26    33   ar
    57    27    32    1
    58    27    55    1
    59    28    36    2
    60    28    57    1
    61    29    34   ar
    62    30    58    1
    63    32    59    1
    64    32    60    1
    65    33    35   ar
    66    33    61    1
    67    34    37   ar
    68    34    62    1
    69    35    37   ar
    70    35    38    1
    71    36    64    1
    72    36    65    1
    73    37    68    1
    74    38    69    1
    75    38    70    1
    76    38    71    1
    77    39    73    1
    78    39    74    1
    79    39    75    1
