@<TRIPOS>MOLECULE
IMPHY004553
 23 24 0 0 0
SMALL
GASTEIGER

@<TRIPOS>ATOM
      1 O           6.0290   -0.8797    0.0000 O.2     1  UNL1       -0.4183
      2 O           2.5369    1.1550    0.0000 O.3     1  UNL1       -0.4913
      3 O           4.2690   -1.8450    0.0000 O.3     1  UNL1       -0.5008
      4 O           2.5369   -0.8450    0.0000 O.3     1  UNL1       -0.5008
      5 O           7.7991   -0.8692    0.0000 O.2     1  UNL1       -0.2452
      6 C           5.1350    0.6550    0.0000 C.ar    1  UNL1        0.0250
      7 C           5.1350   -0.3450    0.0000 C.ar    1  UNL1        0.1841
      8 C           4.2690    1.1550    0.0000 C.ar    1  UNL1       -0.0054
      9 C           4.2690   -0.8450    0.0000 C.ar    1  UNL1        0.2059
     10 C           3.4030    0.6550    0.0000 C.ar    1  UNL1        0.1658
     11 C           3.4030   -0.3450    0.0000 C.ar    1  UNL1        0.2046
     12 C           6.0290    1.1897    0.0000 C.ar    1  UNL1       -0.0441
     13 C           6.9350    0.6758    0.0000 C.ar    1  UNL1        0.0236
     14 C           6.9350   -0.3658    0.0000 C.ar    1  UNL1        0.3373
     15 C           2.5369    2.1550    0.0000 C.3     1  UNL1        0.0790
     16 H           4.2690    1.7750    0.0000 H       1  UNL1        0.0662
     17 H           6.0218    1.8096    0.0000 H       1  UNL1        0.0627
     18 H           7.4708    0.9879    0.0000 H       1  UNL1        0.0689
     19 H           3.7320   -2.1550    0.0000 H       1  UNL1        0.2924
     20 H           2.0000   -0.5350    0.0000 H       1  UNL1        0.2924
     21 H           3.1569    2.1550    0.0000 H       1  UNL1        0.0660
     22 H           2.5369    2.7750    0.0000 H       1  UNL1        0.0660
     23 H           1.9169    2.1550    0.0000 H       1  UNL1        0.0660
@<TRIPOS>BOND
     1     1     7   ar
     2     1    14   ar
     3     2    10    1
     4     2    15    1
     5     3     9    1
     6     3    19    1
     7     4    11    1
     8     4    20    1
     9     5    14    2
    10     6     7   ar
    11     6     8   ar
    12     6    12   ar
    13     7     9   ar
    14     8    10   ar
    15     8    16    1
    16     9    11   ar
    17    10    11   ar
    18    12    13   ar
    19    12    17    1
    20    13    14   ar
    21    13    18    1
    22    15    21    1
    23    15    22    1
    24    15    23    1
