@<TRIPOS>MOLECULE
IMPHY000458
 32 35 0 0 0
SMALL
GASTEIGER

@<TRIPOS>ATOM
      1 C           4.3324    5.4845    0.0000 C.3     1  UNL1        0.2155
      2 C           4.3435    4.4861    0.0000 C.3     1  UNL1        0.1664
      3 C           5.1948    5.9949    0.0000 C.ar    1  UNL1        0.0230
      4 O           3.4610    5.9748    0.0000 O.3     1  UNL1       -0.4723
      5 C           3.4810    3.9780    0.0000 C.3     1  UNL1        0.0664
      6 O           5.2193    3.9958    0.0000 O.3     1  UNL1       -0.3266
      7 C           6.0640    5.5024    0.0000 C.ar    1  UNL1        0.0447
      8 C           5.1859    6.9933    0.0000 C.ar    1  UNL1        0.0028
      9 C           2.6030    5.4689    0.0000 C.ar    1  UNL1        0.1413
     10 C           2.6119    4.4683    0.0000 C.ar    1  UNL1        0.0534
     11 C           5.2305    2.9930    0.0000 C.3     1  UNL1        0.2695
     12 C           6.9220    6.0149    0.0000 C.ar    1  UNL1        0.2341
     13 C           6.0439    7.5058    0.0000 C.ar    1  UNL1        0.0452
     14 C           1.7316    5.9592    0.0000 C.ar    1  UNL1        0.0788
     15 C           1.7517    3.9580    0.0000 C.ar    1  UNL1        0.1979
     16 C           6.1018    2.5049    0.0000 C.3     1  UNL1        0.2406
     17 O           4.3725    2.4826    0.0000 O.3     1  UNL1       -0.3256
     18 C           6.9130    7.0111    0.0000 C.ar    1  UNL1        0.2342
     19 O           7.8000    5.5224    0.0000 O.3     1  UNL1       -0.2832
     20 C           0.8714    5.4489    0.0000 C.ar    1  UNL1        0.2019
     21 C           0.8803    4.4505    0.0000 C.ar    1  UNL1        0.0839
     22 O           1.7606    2.9573    0.0000 O.3     1  UNL1       -0.2867
     23 C           6.1152    1.5065    0.0000 C.3     1  UNL1        0.2198
     24 O           6.9598    3.0153    0.0000 O.3     1  UNL1       -0.2149
     25 C           4.3858    1.4842    0.0000 C.3     1  UNL1        0.1835
     26 O           7.7800    7.5259    0.0000 O.3     1  UNL1       -0.2831
     27 O           0.0000    5.9392    0.0000 O.3     1  UNL1       -0.2864
     28 C           5.2550    0.9962    0.0000 C.3     1  UNL1        0.2144
     29 O           6.9888    1.0162    0.0000 O.3     1  UNL1       -0.2174
     30 C           3.5278    0.9739    0.0000 C.3     1  UNL1        0.2142
     31 O           5.2728    0.0000    0.0000 O.3     1  UNL1       -0.2176
     32 O           2.6520    1.4642    0.0000 O.3     1  UNL1       -0.2176
@<TRIPOS>BOND
     1     1     2    1
     2     1     3    1
     3     1     4    1
     4     2     5    1
     5     2     6    1
     6     3     7   ar
     7     3     8   ar
     8     4     9    1
     9     5    10    1
    10     7    12   ar
    11     8    13   ar
    12     9    10   ar
    13     9    14   ar
    14    10    15   ar
    15    11     6    1
    16    11    16    1
    17    11    17    1
    18    12    18   ar
    19    12    19    1
    20    13    18   ar
    21    14    20   ar
    22    15    21   ar
    23    15    22    1
    24    16    23    1
    25    16    24    1
    26    17    25    1
    27    18    26    1
    28    20    21   ar
    29    20    27    1
    30    23    28    1
    31    23    29    1
    32    25    28    1
    33    25    30    1
    34    28    31    1
    35    30    32    1
