@<TRIPOS>MOLECULE
IMPHY000041
 24 25 0 0 0
SMALL
GASTEIGER

@<TRIPOS>ATOM
      1 C           3.7320   -0.5000    0.0000 C.ar    1  UNL1       -0.0147
      2 C           3.7320    0.5000    0.0000 C.ar    1  UNL1       -0.0147
      3 C           2.8660   -1.0000    0.0000 C.ar    1  UNL1       -0.0427
      4 C           2.8660    1.0000    0.0000 C.ar    1  UNL1       -0.0427
      5 C           2.0000   -0.5000    0.0000 C.ar    1  UNL1       -0.0580
      6 C           2.0000    0.5000    0.0000 C.ar    1  UNL1       -0.0580
      7 C           4.6260   -1.0347    0.0000 C.ar    1  UNL1       -0.0538
      8 C           4.6260    1.0347    0.0000 C.ar    1  UNL1       -0.0538
      9 C           2.8660   -2.0000    0.0000 C.3     1  UNL1       -0.0391
     10 C           2.8660    2.0000    0.0000 C.3     1  UNL1       -0.0391
     11 C           5.5321   -0.5208    0.0000 C.ar    1  UNL1       -0.0612
     12 C           5.5321    0.5208    0.0000 C.ar    1  UNL1       -0.0612
     13 H           1.4631   -0.8100    0.0000 H       1  UNL1        0.0620
     14 H           1.4631    0.8100    0.0000 H       1  UNL1        0.0620
     15 H           4.6188   -1.6546    0.0000 H       1  UNL1        0.0624
     16 H           4.6188    1.6546    0.0000 H       1  UNL1        0.0624
     17 H           3.4860    2.0000    0.0000 H       1  UNL1        0.0278
     18 H           2.8660    2.6200    0.0000 H       1  UNL1        0.0278
     19 H           2.2460    2.0000    0.0000 H       1  UNL1        0.0278
     20 H           2.2460   -2.0000    0.0000 H       1  UNL1        0.0278
     21 H           2.8660   -2.6200    0.0000 H       1  UNL1        0.0278
     22 H           3.4860   -2.0000    0.0000 H       1  UNL1        0.0278
     23 H           6.0678   -0.8329    0.0000 H       1  UNL1        0.0618
     24 H           6.0678    0.8329    0.0000 H       1  UNL1        0.0618
@<TRIPOS>BOND
     1     1     2   ar
     2     1     3   ar
     3     1     7   ar
     4     2     4   ar
     5     2     8   ar
     6     3     5   ar
     7     3     9    1
     8     4     6   ar
     9     4    10    1
    10     5     6   ar
    11     5    13    1
    12     6    14    1
    13     7    11   ar
    14     7    15    1
    15     8    12   ar
    16     8    16    1
    17     9    20    1
    18     9    21    1
    19     9    22    1
    20    10    17    1
    21    10    18    1
    22    10    19    1
    23    11    12   ar
    24    11    23    1
    25    12    24    1
