@<TRIPOS>MOLECULE
IMPHY017605
 27 27 0 0 0
SMALL
GASTEIGER

@<TRIPOS>ATOM
      1 O           3.0000    2.3450    0.0000 O.3     1  UNL1       -0.3848
      2 C           3.0000    1.3450    0.0000 C.3     1  UNL1        0.0817
      3 C           3.0000    0.3450    0.0000 C.2     1  UNL1       -0.0387
      4 C           2.1340   -0.1550    0.0000 C.3     1  UNL1       -0.0251
      5 C           2.1340   -1.1550    0.0000 C.3     1  UNL1       -0.0279
      6 C           3.0000   -1.6550    0.0000 C.2     1  UNL1       -0.0723
      7 C           3.8660   -0.1550    0.0000 C.2     1  UNL1       -0.0599
      8 C           4.0000    1.3450    0.0000 C.3     1  UNL1       -0.0324
      9 C           2.0000    1.3450    0.0000 C.3     1  UNL1       -0.0324
     10 C           3.8660   -1.1550    0.0000 C.2     1  UNL1       -0.0627
     11 C           3.0000   -2.6550    0.0000 C.3     1  UNL1       -0.0435
     12 H           1.9219    0.4276    0.0000 H       1  UNL1        0.0314
     13 H           1.5234   -0.2627    0.0000 H       1  UNL1        0.0314
     14 H           1.5234   -1.0473    0.0000 H       1  UNL1        0.0313
     15 H           1.9219   -1.7376    0.0000 H       1  UNL1        0.0313
     16 H           4.4030    0.1550    0.0000 H       1  UNL1        0.0618
     17 H           4.0000    0.7250    0.0000 H       1  UNL1        0.0260
     18 H           4.6200    1.3450    0.0000 H       1  UNL1        0.0260
     19 H           4.0000    1.9650    0.0000 H       1  UNL1        0.0260
     20 H           2.0000    1.9650    0.0000 H       1  UNL1        0.0260
     21 H           1.3800    1.3450    0.0000 H       1  UNL1        0.0260
     22 H           2.0000    0.7250    0.0000 H       1  UNL1        0.0260
     23 H           4.4030   -1.4650    0.0000 H       1  UNL1        0.0617
     24 H           2.3800   -2.6550    0.0000 H       1  UNL1        0.0274
     25 H           3.0000   -3.2750    0.0000 H       1  UNL1        0.0274
     26 H           3.6200   -2.6550    0.0000 H       1  UNL1        0.0274
     27 H           3.5369    2.6550    0.0000 H       1  UNL1        0.2106
@<TRIPOS>BOND
     1     1     2    1
     2     1    27    1
     3     2     3    1
     4     2     8    1
     5     2     9    1
     6     3     4    1
     7     3     7    2
     8     4     5    1
     9     4    12    1
    10     4    13    1
    11     5     6    1
    12     5    14    1
    13     5    15    1
    14     6    10    2
    15     6    11    1
    16     7    10    1
    17     7    16    1
    18     8    17    1
    19     8    18    1
    20     8    19    1
    21     9    20    1
    22     9    21    1
    23     9    22    1
    24    10    23    1
    25    11    24    1
    26    11    25    1
    27    11    26    1
