@<TRIPOS>MOLECULE
IMPHY006544
 84 88 0 0 0
SMALL
GASTEIGER

@<TRIPOS>ATOM
      1 O           2.5357   -1.8922    0.0000 O.3     1  UNL1       -0.3886
      2 O           2.5519    0.1994    0.0000 O.3     1  UNL1       -0.3892
      3 O           4.3500   -3.6701    0.0000 O.3     1  UNL1       -0.3944
      4 O          11.4608    1.1943    0.0000 O.3     1  UNL1       -0.3944
      5 C           7.0628   -0.3398    0.0000 C.3     1  UNL1       -0.0194
      6 C           6.1968    0.1601    0.0000 C.3     1  UNL1       -0.0257
      7 C           5.2868   -0.3467    0.0000 C.3     1  UNL1       -0.0225
      8 C           7.9288    0.1601    0.0000 C.3     1  UNL1       -0.0051
      9 C           5.2787   -1.3883    0.0000 C.3     1  UNL1       -0.0253
     10 C           7.0789   -1.3814    0.0000 C.3     1  UNL1       -0.0463
     11 C           7.9288    1.1602    0.0000 C.2     1  UNL1       -0.0633
     12 C           6.1808   -1.9091    0.0000 C.3     1  UNL1       -0.0485
     13 C           4.3433   -1.9380    0.0000 C.3     1  UNL1        0.0227
     14 C           8.8228    1.6948    0.0000 C.3     1  UNL1       -0.0112
     15 C           9.7288    1.1810    0.0000 C.3     1  UNL1        0.0004
     16 C           6.1968    1.1602    0.0000 C.3     1  UNL1       -0.0306
     17 C           8.8228   -0.3745    0.0000 C.3     1  UNL1       -0.0428
     18 C           4.3599    0.2174    0.0000 C.3     1  UNL1       -0.0184
     19 C           9.7288    0.1393    0.0000 C.3     1  UNL1       -0.0439
     20 C           7.7056   -1.1059    0.0000 C.3     1  UNL1       -0.0585
     21 C           3.4037   -1.3955    0.0000 C.3     1  UNL1        0.0888
     22 C           7.0628    1.6602    0.0000 C.2     1  UNL1       -0.0836
     23 C           5.2945    0.6533    0.0000 C.3     1  UNL1       -0.0589
     24 C           3.4120   -0.3106    0.0000 C.3     1  UNL1        0.0822
     25 C           8.2709   -0.7795    0.0000 C.3     1  UNL1       -0.0553
     26 C           8.7977    2.7795    0.0000 C.3     1  UNL1       -0.0407
     27 C          10.6726    1.7162    0.0000 C.3     1  UNL1       -0.0443
     28 C           9.7288    3.3364    0.0000 C.3     1  UNL1       -0.0343
     29 C          10.6726    2.8012    0.0000 C.3     1  UNL1       -0.0473
     30 C           3.8467   -2.8060    0.0000 C.3     1  UNL1        0.0523
     31 C           4.8466   -2.8021    0.0000 C.3     1  UNL1       -0.0547
     32 C          10.5987    0.6877    0.0000 C.3     1  UNL1        0.0504
     33 C          10.2188    4.2082    0.0000 C.3     1  UNL1       -0.0598
     34 C           9.2188    4.1966    0.0000 C.3     1  UNL1       -0.0598
     35 H           6.9329    0.5851    0.0000 H       1  UNL1        0.0315
     36 H           5.2820   -2.2383    0.0000 H       1  UNL1        0.0313
     37 H           7.2969   -1.9618    0.0000 H       1  UNL1        0.0271
     38 H           7.6880   -1.2659    0.0000 H       1  UNL1        0.0271
     39 H           5.7835   -2.3851    0.0000 H       1  UNL1        0.0268
     40 H           6.5818   -2.3820    0.0000 H       1  UNL1        0.0268
     41 H           9.5522    2.1311    0.0000 H       1  UNL1        0.0352
     42 H           8.4182   -0.8443    0.0000 H       1  UNL1        0.0274
     43 H           9.2164   -0.8535    0.0000 H       1  UNL1        0.0274
     44 H           5.9847    1.7428    0.0000 H       1  UNL1        0.0310
     45 H           5.5862    1.0525    0.0000 H       1  UNL1        0.0310
     46 H           4.7681    0.6840    0.0000 H       1  UNL1        0.0296
     47 H           3.9700    0.6994    0.0000 H       1  UNL1        0.0296
     48 H           9.9379   -0.4444    0.0000 H       1  UNL1        0.0272
     49 H          10.3397    0.2454    0.0000 H       1  UNL1        0.0272
     50 H           7.2306   -1.5044    0.0000 H       1  UNL1        0.0235
     51 H           8.1041   -1.5808    0.0000 H       1  UNL1        0.0235
     52 H           8.1805   -0.7074    0.0000 H       1  UNL1        0.0235
     53 H           3.4025   -2.0155    0.0000 H       1  UNL1        0.0625
     54 H           7.0628    2.2802    0.0000 H       1  UNL1        0.0572
     55 H           5.9145    0.6485    0.0000 H       1  UNL1        0.0235
     56 H           5.2993    1.2733    0.0000 H       1  UNL1        0.0235
     57 H           4.6745    0.6581    0.0000 H       1  UNL1        0.0235
     58 H           2.8722   -0.6154    0.0000 H       1  UNL1        0.0619
     59 H           7.6884   -0.9916    0.0000 H       1  UNL1        0.0238
     60 H           8.4830   -1.3621    0.0000 H       1  UNL1        0.0238
     61 H           8.8535   -0.5674    0.0000 H       1  UNL1        0.0238
     62 H           8.5752    3.3582    0.0000 H       1  UNL1        0.0276
     63 H           8.1894    2.6593    0.0000 H       1  UNL1        0.0276
     64 H          10.8817    1.1325    0.0000 H       1  UNL1        0.0272
     65 H          11.2835    1.8223    0.0000 H       1  UNL1        0.0272
     66 H          11.2835    2.6951    0.0000 H       1  UNL1        0.0271
     67 H          10.8817    3.3849    0.0000 H       1  UNL1        0.0271
     68 H           3.3702   -2.4093    0.0000 H       1  UNL1        0.0563
     69 H           3.3732   -3.2063    0.0000 H       1  UNL1        0.0563
     70 H           4.3109   -3.1142    0.0000 H       1  UNL1        0.0237
     71 H           5.1587   -3.3378    0.0000 H       1  UNL1        0.0237
     72 H           5.3824   -2.4900    0.0000 H       1  UNL1        0.0237
     73 H          10.2038    0.2097    0.0000 H       1  UNL1        0.0563
     74 H          11.0009    0.2158    0.0000 H       1  UNL1        0.0563
     75 H          10.7593    3.9044    0.0000 H       1  UNL1        0.0235
     76 H          10.5226    4.7487    0.0000 H       1  UNL1        0.0235
     77 H           9.6783    4.5120    0.0000 H       1  UNL1        0.0235
     78 H           9.7522    4.5128    0.0000 H       1  UNL1        0.0235
     79 H           8.9027    4.7299    0.0000 H       1  UNL1        0.0235
     80 H           8.6855    3.8804    0.0000 H       1  UNL1        0.0235
     81 H           2.0000   -1.5801    0.0000 H       1  UNL1        0.2099
     82 H           2.5590    0.8194    0.0000 H       1  UNL1        0.2099
     83 H           4.0421   -4.2082    0.0000 H       1  UNL1        0.2094
     84 H          12.0001    0.8885    0.0000 H       1  UNL1        0.2094
@<TRIPOS>BOND
     1    21     1    1
     2     1    81    1
     3    24     2    1
     4     2    82    1
     5     3    30    1
     6     3    83    1
     7     4    32    1
     8     4    84    1
     9     5     6    1
    10     5     8    1
    11     5    10    1
    12     5    20    1
    13     6     7    1
    14     6    16    1
    15     6    35    1
    16     7     9    1
    17     7    18    1
    18     7    23    1
    19     8    11    1
    20     8    17    1
    21     8    25    1
    22     9    12    1
    23     9    13    1
    24     9    36    1
    25    10    12    1
    26    10    37    1
    27    10    38    1
    28    11    14    1
    29    11    22    2
    30    12    39    1
    31    12    40    1
    32    13    21    1
    33    13    30    1
    34    13    31    1
    35    14    15    1
    36    14    26    1
    37    14    41    1
    38    15    19    1
    39    15    27    1
    40    15    32    1
    41    16    22    1
    42    16    44    1
    43    16    45    1
    44    17    19    1
    45    17    42    1
    46    17    43    1
    47    18    24    1
    48    18    46    1
    49    18    47    1
    50    19    48    1
    51    19    49    1
    52    20    50    1
    53    20    51    1
    54    20    52    1
    55    21    24    1
    56    21    53    1
    57    22    54    1
    58    23    55    1
    59    23    56    1
    60    23    57    1
    61    24    58    1
    62    25    59    1
    63    25    60    1
    64    25    61    1
    65    26    28    1
    66    26    62    1
    67    26    63    1
    68    27    29    1
    69    27    64    1
    70    27    65    1
    71    28    29    1
    72    28    33    1
    73    28    34    1
    74    29    66    1
    75    29    67    1
    76    30    68    1
    77    30    69    1
    78    31    70    1
    79    31    71    1
    80    31    72    1
    81    32    73    1
    82    32    74    1
    83    33    75    1
    84    33    76    1
    85    33    77    1
    86    34    78    1
    87    34    79    1
    88    34    80    1
