@<TRIPOS>MOLECULE
IMPHY005921
 77 80 0 0 0
SMALL
GASTEIGER

@<TRIPOS>ATOM
      1 O           9.8558   -2.2949    0.0000 O.3     1  UNL1       -0.4536
      2 O           8.9108   -1.8334    0.0000 O.3     1  UNL1       -0.4538
      3 O           9.6380    0.7733    0.0000 O.3     1  UNL1       -0.3870
      4 O          10.8425   -3.7185    0.0000 O.2     1  UNL1       -0.2511
      5 O          10.7399    3.8612    0.0000 O.2     1  UNL1       -0.2921
      6 O          13.8331    2.4924    0.0000 O.3     1  UNL1       -0.3907
      7 O           7.9406   -0.3986    0.0000 O.2     1  UNL1       -0.2456
      8 C          11.5337   -1.1319    0.0000 C.3     1  UNL1        0.0209
      9 C          10.6777   -1.7253    0.0000 C.3     1  UNL1        0.1598
     10 C          11.6199   -2.1704    0.0000 C.3     1  UNL1        0.0161
     11 C          11.4399   -0.0945    0.0000 C.3     1  UNL1        0.0144
     12 C           9.7392   -1.2733    0.0000 C.3     1  UNL1        0.1488
     13 C          10.5389    0.3394    0.0000 C.3     1  UNL1        0.0856
     14 C           9.6694   -0.2340    0.0000 C.3     1  UNL1        0.0271
     15 C          12.6165   -2.0880    0.0000 C.3     1  UNL1       -0.0556
     16 C          11.1930   -3.0747    0.0000 C.3     1  UNL1       -0.0556
     17 C          10.3164    1.3143    0.0000 C.3     1  UNL1        0.0176
     18 C          12.3409    0.3394    0.0000 C.2     1  UNL1       -0.0763
     19 C          10.9399    2.0962    0.0000 C.3     1  UNL1        0.0344
     20 C           8.6714   -0.2972    0.0000 C.3     1  UNL1       -0.0562
     21 C          12.5634    1.3143    0.0000 C.2     1  UNL1       -0.0474
     22 C          11.9399    2.0962    0.0000 C.3     1  UNL1       -0.0191
     23 C           9.3866    1.6660    0.0000 C.2     1  UNL1       -0.0713
     24 C           9.9382   -3.2915    0.0000 C.2     1  UNL1        0.3046
     25 C          10.3901    2.9244    0.0000 C.2     1  UNL1        0.1627
     26 C           9.4321    2.6591    0.0000 C.2     1  UNL1       -0.0113
     27 C           8.0115   -1.3961    0.0000 C.2     1  UNL1        0.3323
     28 C          13.5383    1.5368    0.0000 C.3     1  UNL1        0.0653
     29 C           9.1163   -3.8612    0.0000 C.3     1  UNL1        0.0333
     30 C           8.6502    3.2826    0.0000 C.3     1  UNL1       -0.0367
     31 C           7.1831   -1.9562    0.0000 C.2     1  UNL1        0.0225
     32 C           6.2838   -1.5189    0.0000 C.2     1  UNL1       -0.0553
     33 C           5.4554   -2.0790    0.0000 C.2     1  UNL1       -0.0655
     34 C           4.5561   -1.6416    0.0000 C.2     1  UNL1       -0.0840
     35 C           3.7277   -2.2018    0.0000 C.3     1  UNL1       -0.0347
     36 C           2.8284   -1.7644    0.0000 C.3     1  UNL1       -0.0525
     37 C           2.0000   -2.3246    0.0000 C.3     1  UNL1       -0.0650
     38 H          12.3806   -1.0584    0.0000 H       1  UNL1        0.0354
     39 H          12.1793   -0.5138    0.0000 H       1  UNL1        0.0375
     40 H           8.9755   -0.9001    0.0000 H       1  UNL1        0.0778
     41 H           9.3995    0.5720    0.0000 H       1  UNL1        0.0363
     42 H          12.6676   -2.7059    0.0000 H       1  UNL1        0.0236
     43 H          13.2344   -2.0369    0.0000 H       1  UNL1        0.0236
     44 H          12.5654   -1.4701    0.0000 H       1  UNL1        0.0236
     45 H          10.6323   -2.8100    0.0000 H       1  UNL1        0.0236
     46 H          10.9283   -3.6354    0.0000 H       1  UNL1        0.0236
     47 H          11.7536   -3.3394    0.0000 H       1  UNL1        0.0236
     48 H          11.1451    1.1252    0.0000 H       1  UNL1        0.0378
     49 H          12.8256   -0.0472    0.0000 H       1  UNL1        0.0576
     50 H          11.3417    2.8452    0.0000 H       1  UNL1        0.0390
     51 H           8.6322    0.3215    0.0000 H       1  UNL1        0.0234
     52 H           8.0526   -0.3364    0.0000 H       1  UNL1        0.0234
     53 H           8.7105   -0.9160    0.0000 H       1  UNL1        0.0234
     54 H           9.0197    0.7270    0.0000 H       1  UNL1        0.2102
     55 H          12.4985    2.3652    0.0000 H       1  UNL1        0.0318
     56 H          11.8019    2.7006    0.0000 H       1  UNL1        0.0318
     57 H           8.8686    1.3254    0.0000 H       1  UNL1        0.0580
     58 H          13.5692    0.9176    0.0000 H       1  UNL1        0.0604
     59 H          14.1535    1.4598    0.0000 H       1  UNL1        0.0604
     60 H           8.7631   -3.3516    0.0000 H       1  UNL1        0.0342
     61 H           8.6068   -4.2144    0.0000 H       1  UNL1        0.0342
     62 H           9.4695   -4.3708    0.0000 H       1  UNL1        0.0342
     63 H           9.0368    3.7673    0.0000 H       1  UNL1        0.0278
     64 H           8.1655    3.6691    0.0000 H       1  UNL1        0.0278
     65 H           8.2637    2.7978    0.0000 H       1  UNL1        0.0278
     66 H           7.2270   -2.5747    0.0000 H       1  UNL1        0.0689
     67 H          14.4375    2.6304    0.0000 H       1  UNL1        0.2098
     68 H           6.2398   -0.9004    0.0000 H       1  UNL1        0.0620
     69 H           5.4993   -2.6974    0.0000 H       1  UNL1        0.0615
     70 H           4.5122   -1.0232    0.0000 H       1  UNL1        0.0572
     71 H           3.3638   -2.7038    0.0000 H       1  UNL1        0.0307
     72 H           4.1589   -2.6473    0.0000 H       1  UNL1        0.0307
     73 H           3.1923   -1.2624    0.0000 H       1  UNL1        0.0266
     74 H           2.3972   -1.3189    0.0000 H       1  UNL1        0.0266
     75 H           1.6527   -1.8110    0.0000 H       1  UNL1        0.0230
     76 H           1.4864   -2.6718    0.0000 H       1  UNL1        0.0230
     77 H           2.3473   -2.8382    0.0000 H       1  UNL1        0.0230
@<TRIPOS>BOND
     1     1     9    1
     2     1    24    1
     3     2    12    1
     4     2    27    1
     5     3    13    1
     6     3    54    1
     7     4    24    2
     8     5    25    2
     9     6    28    1
    10     6    67    1
    11     7    27    2
    12     8     9    1
    13     8    10    1
    14     8    11    1
    15     8    38    1
    16     9    10    1
    17     9    12    1
    18    10    15    1
    19    10    16    1
    20    11    13    1
    21    11    18    1
    22    11    39    1
    23    12    14    1
    24    12    40    1
    25    13    14    1
    26    13    17    1
    27    14    20    1
    28    14    41    1
    29    15    42    1
    30    15    43    1
    31    15    44    1
    32    16    45    1
    33    16    46    1
    34    16    47    1
    35    17    19    1
    36    17    23    1
    37    17    48    1
    38    18    21    2
    39    18    49    1
    40    19    22    1
    41    19    25    1
    42    19    50    1
    43    20    51    1
    44    20    52    1
    45    20    53    1
    46    21    22    1
    47    21    28    1
    48    22    55    1
    49    22    56    1
    50    23    26    2
    51    23    57    1
    52    24    29    1
    53    25    26    1
    54    26    30    1
    55    27    31    1
    56    28    58    1
    57    28    59    1
    58    29    60    1
    59    29    61    1
    60    29    62    1
    61    30    63    1
    62    30    64    1
    63    30    65    1
    64    31    32    2
    65    31    66    1
    66    32    33    1
    67    32    68    1
    68    33    34    2
    69    33    69    1
    70    34    35    1
    71    34    70    1
    72    35    36    1
    73    35    71    1
    74    35    72    1
    75    36    37    1
    76    36    73    1
    77    36    74    1
    78    37    75    1
    79    37    76    1
    80    37    77    1
