@<TRIPOS>MOLECULE
IMPHY002939
 23 22 0 0 0
SMALL
GASTEIGER

@<TRIPOS>ATOM
      1 O           3.7320    0.2500    0.0000 O.3     1  UNL1       -0.4647
      2 O           4.5981   -1.2500    0.0000 O.2     1  UNL1       -0.2505
      3 C           5.4641    0.2500    0.0000 C.3     1  UNL1        0.0534
      4 C           6.3301   -0.2500    0.0000 C.3     1  UNL1       -0.0432
      5 C           5.4641    1.2500    0.0000 C.3     1  UNL1       -0.0523
      6 C           4.5981   -0.2500    0.0000 C.2     1  UNL1        0.3099
      7 C           7.1962    0.2500    0.0000 C.3     1  UNL1       -0.0645
      8 C           2.8660   -0.2500    0.0000 C.3     1  UNL1        0.0897
      9 C           2.0000    0.2500    0.0000 C.3     1  UNL1       -0.0306
     10 H           6.2002    0.6750    0.0000 H       1  UNL1        0.0410
     11 H           5.9316   -0.7249    0.0000 H       1  UNL1        0.0270
     12 H           6.7287   -0.7249    0.0000 H       1  UNL1        0.0270
     13 H           6.0841    1.2500    0.0000 H       1  UNL1        0.0238
     14 H           5.4641    1.8700    0.0000 H       1  UNL1        0.0238
     15 H           4.8441    1.2500    0.0000 H       1  UNL1        0.0238
     16 H           7.5062   -0.2869    0.0000 H       1  UNL1        0.0230
     17 H           7.7331    0.5600    0.0000 H       1  UNL1        0.0230
     18 H           6.8862    0.7869    0.0000 H       1  UNL1        0.0230
     19 H           2.4675   -0.7249    0.0000 H       1  UNL1        0.0694
     20 H           3.2646   -0.7249    0.0000 H       1  UNL1        0.0694
     21 H           2.3100    0.7869    0.0000 H       1  UNL1        0.0262
     22 H           1.4631    0.5600    0.0000 H       1  UNL1        0.0262
     23 H           1.6900   -0.2869    0.0000 H       1  UNL1        0.0262
@<TRIPOS>BOND
     1     1     6    1
     2     1     8    1
     3     2     6    2
     4     3     4    1
     5     3     5    1
     6     3     6    1
     7     3    10    1
     8     4     7    1
     9     4    11    1
    10     4    12    1
    11     5    13    1
    12     5    14    1
    13     5    15    1
    14     7    16    1
    15     7    17    1
    16     7    18    1
    17     8     9    1
    18     8    19    1
    19     8    20    1
    20     9    21    1
    21     9    22    1
    22     9    23    1
