@<TRIPOS>MOLECULE
IMPHY015990
 36 35 0 0 0
SMALL
GASTEIGER

@<TRIPOS>ATOM
      1 O           7.1962    0.0000    0.0000 O.3     1  UNL1       -0.4643
      2 O           6.3301   -1.5000    0.0000 O.2     1  UNL1       -0.2509
      3 C           3.7320    0.0000    0.0000 C.3     1  UNL1       -0.0528
      4 C           4.5981   -0.5000    0.0000 C.3     1  UNL1       -0.0430
      5 C           2.8660   -0.5000    0.0000 C.3     1  UNL1       -0.0559
      6 C           5.4641    0.0000    0.0000 C.3     1  UNL1        0.0449
      7 C           2.0000   -0.0000    0.0000 C.3     1  UNL1       -0.0653
      8 C           6.3301   -0.5000    0.0000 C.2     1  UNL1        0.3071
      9 C           8.0622   -0.5000    0.0000 C.3     1  UNL1        0.0959
     10 C           8.9282    0.0000    0.0000 C.3     1  UNL1       -0.0003
     11 C           9.7942   -0.5000    0.0000 C.2     1  UNL1       -0.0847
     12 C          10.6603   -0.0000    0.0000 C.2     1  UNL1       -0.0881
     13 C          10.6603    1.0000    0.0000 C.3     1  UNL1       -0.0376
     14 C          11.5263    1.5000    0.0000 C.3     1  UNL1       -0.0618
     15 H           4.1306    0.4749    0.0000 H       1  UNL1        0.0265
     16 H           3.3335    0.4749    0.0000 H       1  UNL1        0.0265
     17 H           4.1996   -0.9749    0.0000 H       1  UNL1        0.0270
     18 H           4.9966   -0.9749    0.0000 H       1  UNL1        0.0270
     19 H           2.4675   -0.9749    0.0000 H       1  UNL1        0.0263
     20 H           3.2646   -0.9749    0.0000 H       1  UNL1        0.0263
     21 H           5.8626    0.4749    0.0000 H       1  UNL1        0.0377
     22 H           5.0656    0.4749    0.0000 H       1  UNL1        0.0377
     23 H           2.3100    0.5369    0.0000 H       1  UNL1        0.0230
     24 H           1.4631    0.3100    0.0000 H       1  UNL1        0.0230
     25 H           1.6900   -0.5369    0.0000 H       1  UNL1        0.0230
     26 H           7.6636   -0.9749    0.0000 H       1  UNL1        0.0700
     27 H           8.4607   -0.9749    0.0000 H       1  UNL1        0.0700
     28 H           9.3267    0.4749    0.0000 H       1  UNL1        0.0340
     29 H           8.5297    0.4749    0.0000 H       1  UNL1        0.0340
     30 H           9.7942   -1.1200    0.0000 H       1  UNL1        0.0570
     31 H          11.1972   -0.3100    0.0000 H       1  UNL1        0.0569
     32 H          10.4482    1.5826    0.0000 H       1  UNL1        0.0305
     33 H          10.0497    0.8923    0.0000 H       1  UNL1        0.0305
     34 H          11.8363    0.9631    0.0000 H       1  UNL1        0.0233
     35 H          12.0632    1.8100    0.0000 H       1  UNL1        0.0233
     36 H          11.2163    2.0369    0.0000 H       1  UNL1        0.0233
@<TRIPOS>BOND
     1     1     8    1
     2     1     9    1
     3     2     8    2
     4     3     4    1
     5     3     5    1
     6     3    15    1
     7     3    16    1
     8     4     6    1
     9     4    17    1
    10     4    18    1
    11     5     7    1
    12     5    19    1
    13     5    20    1
    14     6     8    1
    15     6    21    1
    16     6    22    1
    17     7    23    1
    18     7    24    1
    19     7    25    1
    20     9    10    1
    21     9    26    1
    22     9    27    1
    23    10    11    1
    24    10    28    1
    25    10    29    1
    26    11    12    2
    27    11    30    1
    28    12    13    1
    29    12    31    1
    30    13    14    1
    31    13    32    1
    32    13    33    1
    33    14    34    1
    34    14    35    1
    35    14    36    1
