@<TRIPOS>MOLECULE
IMPHY004603
 46 47 0 0 0
SMALL
GASTEIGER

@<TRIPOS>ATOM
      1 O           5.1350   -1.6550    0.0000 O.3     1  UNL1       -0.3313
      2 O           6.8671   -1.6550    0.0000 O.3     1  UNL1       -0.4572
      3 O           5.1350   -4.6550    0.0000 O.3     1  UNL1       -0.3864
      4 O           3.4030   -3.6550    0.0000 O.3     1  UNL1       -0.3865
      5 O           6.8671   -3.6550    0.0000 O.3     1  UNL1       -0.3829
      6 O           2.5369   -2.1550    0.0000 O.3     1  UNL1       -0.3924
      7 O           8.5991   -0.6550    0.0000 O.3     1  UNL1       -0.4914
      8 O           8.5991    4.3450    0.0000 O.3     1  UNL1       -0.3910
      9 C           5.1350   -3.6550    0.0000 C.3     1  UNL1        0.1152
     10 C           4.2690   -3.1550    0.0000 C.3     1  UNL1        0.1120
     11 C           6.0010   -3.1550    0.0000 C.3     1  UNL1        0.1454
     12 C           4.2690   -2.1550    0.0000 C.3     1  UNL1        0.1140
     13 C           6.0010   -2.1550    0.0000 C.3     1  UNL1        0.2310
     14 C           3.4030   -1.6550    0.0000 C.3     1  UNL1        0.0731
     15 C           6.8671   -0.6550    0.0000 C.ar    1  UNL1        0.1654
     16 C           7.7331   -0.1550    0.0000 C.ar    1  UNL1        0.1622
     17 C           6.0010   -0.1550    0.0000 C.ar    1  UNL1       -0.0156
     18 C           7.7331    0.8450    0.0000 C.ar    1  UNL1       -0.0092
     19 C           6.0010    0.8450    0.0000 C.ar    1  UNL1       -0.0509
     20 C           6.8671    1.3450    0.0000 C.ar    1  UNL1       -0.0216
     21 C           6.8671    2.3450    0.0000 C.2     1  UNL1       -0.0563
     22 C           9.4651   -0.1550    0.0000 C.3     1  UNL1        0.0790
     23 C           7.7331    2.8450    0.0000 C.2     1  UNL1       -0.0584
     24 C           7.7331    3.8450    0.0000 C.3     1  UNL1        0.0627
     25 H           5.6720   -3.9650    0.0000 H       1  UNL1        0.0648
     26 H           4.2690   -3.7750    0.0000 H       1  UNL1        0.0647
     27 H           6.5380   -2.8450    0.0000 H       1  UNL1        0.0683
     28 H           4.2690   -1.5350    0.0000 H       1  UNL1        0.0647
     29 H           6.0010   -1.5350    0.0000 H       1  UNL1        0.1084
     30 H           3.8015   -1.1800    0.0000 H       1  UNL1        0.0584
     31 H           3.0044   -1.1800    0.0000 H       1  UNL1        0.0584
     32 H           4.5981   -4.9650    0.0000 H       1  UNL1        0.2100
     33 H           3.4030   -4.2750    0.0000 H       1  UNL1        0.2100
     34 H           6.8671   -4.2750    0.0000 H       1  UNL1        0.2102
     35 H           2.0000   -1.8450    0.0000 H       1  UNL1        0.2095
     36 H           5.4641   -0.4650    0.0000 H       1  UNL1        0.0655
     37 H           8.2700    1.1550    0.0000 H       1  UNL1        0.0661
     38 H           5.4641    1.1550    0.0000 H       1  UNL1        0.0625
     39 H           6.3301    2.6550    0.0000 H       1  UNL1        0.0621
     40 H           9.7751   -0.6919    0.0000 H       1  UNL1        0.0660
     41 H          10.0021    0.1550    0.0000 H       1  UNL1        0.0660
     42 H           9.1551    0.3819    0.0000 H       1  UNL1        0.0660
     43 H           8.2700    2.5350    0.0000 H       1  UNL1        0.0595
     44 H           7.5210    4.4276    0.0000 H       1  UNL1        0.0601
     45 H           7.1225    3.7373    0.0000 H       1  UNL1        0.0601
     46 H           8.5991    4.9650    0.0000 H       1  UNL1        0.2098
@<TRIPOS>BOND
     1     1    12    1
     2     1    13    1
     3    13     2    1
     4     2    15    1
     5     9     3    1
     6     3    32    1
     7    10     4    1
     8     4    33    1
     9    11     5    1
    10     5    34    1
    11     6    14    1
    12     6    35    1
    13     7    16    1
    14     7    22    1
    15     8    24    1
    16     8    46    1
    17     9    10    1
    18     9    11    1
    19     9    25    1
    20    10    12    1
    21    10    26    1
    22    11    13    1
    23    11    27    1
    24    12    14    1
    25    12    28    1
    26    13    29    1
    27    14    30    1
    28    14    31    1
    29    15    16   ar
    30    15    17   ar
    31    16    18   ar
    32    17    19   ar
    33    17    36    1
    34    18    20   ar
    35    18    37    1
    36    19    20   ar
    37    19    38    1
    38    20    21    1
    39    21    23    2
    40    21    39    1
    41    22    40    1
    42    22    41    1
    43    22    42    1
    44    23    24    1
    45    23    43    1
    46    24    44    1
    47    24    45    1
