@<TRIPOS>MOLECULE
IMPHY015498
 16 17 0 0 0
SMALL
GASTEIGER

@<TRIPOS>ATOM
      1 C           4.7403    0.5041    0.0000 C.3     1  UNL1       -0.0234
      2 C           4.7403   -0.5041    0.0000 C.3     1  UNL1       -0.0234
      3 C           3.7320    0.5000    0.0000 C.ar    1  UNL1       -0.0439
      4 C           3.7320   -0.5000    0.0000 C.ar    1  UNL1       -0.0439
      5 C           2.8660    1.0000    0.0000 C.ar    1  UNL1       -0.0583
      6 C           2.8660   -1.0000    0.0000 C.ar    1  UNL1       -0.0583
      7 C           2.0000    0.5000    0.0000 C.ar    1  UNL1       -0.0615
      8 C           2.0000   -0.5000    0.0000 C.ar    1  UNL1       -0.0615
      9 H           5.3603    0.5050    0.0000 H       1  UNL1        0.0316
     10 H           4.7386    1.1241    0.0000 H       1  UNL1        0.0316
     11 H           4.7386   -1.1241    0.0000 H       1  UNL1        0.0316
     12 H           5.3603   -0.5050    0.0000 H       1  UNL1        0.0316
     13 H           2.8660    1.6200    0.0000 H       1  UNL1        0.0620
     14 H           2.8660   -1.6200    0.0000 H       1  UNL1        0.0620
     15 H           1.4631    0.8100    0.0000 H       1  UNL1        0.0618
     16 H           1.4631   -0.8100    0.0000 H       1  UNL1        0.0618
@<TRIPOS>BOND
     1     1     2    1
     2     1     3    1
     3     1     9    1
     4     1    10    1
     5     2     4    1
     6     2    11    1
     7     2    12    1
     8     3     4   ar
     9     3     5   ar
    10     4     6   ar
    11     5     7   ar
    12     5    13    1
    13     6     8   ar
    14     6    14    1
    15     7     8   ar
    16     7    15    1
    17     8    16    1
