@<TRIPOS>MOLECULE
IMPHY008308
 29 29 0 0 0
SMALL
GASTEIGER

@<TRIPOS>ATOM
      1 O           3.3669    1.6076    0.0000 O.co2   1  UNL1       -0.5442
      2 O           5.0611    1.2475    0.0000 O.co2   1  UNL1       -0.5442
      3 N           2.9511   -0.3487    0.0000 N.4     1  UNL1        0.2434
      4 N           6.4053   -0.9876    0.0000 N.ar    1  UNL1       -0.3480
      5 N           6.9053    0.5513    0.0000 N.ar    1  UNL1       -0.2440
      6 C           3.9021   -0.0397    0.0000 C.3     1  UNL1        0.0260
      7 C           4.6453   -0.7088    0.0000 C.3     1  UNL1        0.0376
      8 C           2.0000   -0.6577    0.0000 C.3     1  UNL1       -0.0412
      9 C           2.6420    0.6024    0.0000 C.3     1  UNL1       -0.0412
     10 C           3.2601   -1.2998    0.0000 C.3     1  UNL1       -0.0412
     11 C           4.1100    0.9385    0.0000 C.2     1  UNL1        0.0899
     12 C           5.5963   -0.3998    0.0000 C.ar    1  UNL1        0.0411
     13 C           5.9053    0.5513    0.0000 C.ar    1  UNL1        0.0486
     14 C           7.2144   -0.3998    0.0000 C.ar    1  UNL1        0.0935
     15 H           3.4414    0.3752    0.0000 H       1  UNL1        0.0920
     16 H           4.1567   -1.0905    0.0000 H       1  UNL1        0.0387
     17 H           4.9363   -1.2562    0.0000 H       1  UNL1        0.0387
     18 H           1.8084   -0.0681    0.0000 H       1  UNL1        0.0778
     19 H           1.4103   -0.8493    0.0000 H       1  UNL1        0.0778
     20 H           2.1916   -1.2474    0.0000 H       1  UNL1        0.0778
     21 H           3.2317    0.7939    0.0000 H       1  UNL1        0.0778
     22 H           2.4504    1.1920    0.0000 H       1  UNL1        0.0778
     23 H           2.0524    0.4108    0.0000 H       1  UNL1        0.0778
     24 H           2.6704   -1.4914    0.0000 H       1  UNL1        0.0778
     25 H           3.4517   -1.8894    0.0000 H       1  UNL1        0.0778
     26 H           3.8497   -1.1082    0.0000 H       1  UNL1        0.0778
     27 H           6.4053   -1.6076    0.0000 H       1  UNL1        0.1665
     28 H           5.5409    1.0528    0.0000 H       1  UNL1        0.0848
     29 H           7.8040   -0.5914    0.0000 H       1  UNL1        0.1027
@<TRIPOS>UNITY_ATOM_ATTR
1 1
charge -1
3 1
charge 1
@<TRIPOS>BOND
     1     1    11   ar
     2     2    11   ar
     3     3     6    1
     4     3     8    1
     5     3     9    1
     6     3    10    1
     7     4    12   ar
     8     4    14   ar
     9     4    27    1
    10     5    13   ar
    11     5    14   ar
    12     6     7    1
    13     6    11    1
    14     6    15    1
    15     7    12    1
    16     7    16    1
    17     7    17    1
    18     8    18    1
    19     8    19    1
    20     8    20    1
    21     9    21    1
    22     9    22    1
    23     9    23    1
    24    10    24    1
    25    10    25    1
    26    10    26    1
    27    12    13   ar
    28    13    28    1
    29    14    29    1
