@<TRIPOS>MOLECULE
IMPHY007943
 18 17 0 0 0
SMALL
GASTEIGER

@<TRIPOS>ATOM
      1 S           6.3301   -0.2500    0.0000 S.3     1  UNL1       -0.1639
      2 O           3.7320    0.2500    0.0000 O.3     1  UNL1       -0.4642
      3 O           4.5981   -1.2500    0.0000 O.2     1  UNL1       -0.2496
      4 C           5.4641    0.2500    0.0000 C.3     1  UNL1        0.0965
      5 C           5.4641    1.2500    0.0000 C.3     1  UNL1       -0.0433
      6 C           4.5981   -0.2500    0.0000 C.2     1  UNL1        0.3196
      7 C           2.8660   -0.2500    0.0000 C.3     1  UNL1        0.0897
      8 C           2.0000    0.2500    0.0000 C.3     1  UNL1       -0.0306
      9 H           6.2002    0.6750    0.0000 H       1  UNL1        0.0521
     10 H           6.0841    1.2500    0.0000 H       1  UNL1        0.0245
     11 H           5.4641    1.8700    0.0000 H       1  UNL1        0.0245
     12 H           4.8441    1.2500    0.0000 H       1  UNL1        0.0245
     13 H           2.4675   -0.7249    0.0000 H       1  UNL1        0.0694
     14 H           3.2646   -0.7249    0.0000 H       1  UNL1        0.0694
     15 H           2.3100    0.7869    0.0000 H       1  UNL1        0.0262
     16 H           1.4631    0.5600    0.0000 H       1  UNL1        0.0262
     17 H           1.6900   -0.2869    0.0000 H       1  UNL1        0.0262
     18 H           6.8671    0.0600    0.0000 H       1  UNL1        0.1024
@<TRIPOS>BOND
     1     1     4    1
     2     1    18    1
     3     2     6    1
     4     2     7    1
     5     3     6    2
     6     4     5    1
     7     4     6    1
     8     4     9    1
     9     5    10    1
    10     5    11    1
    11     5    12    1
    12     7     8    1
    13     7    13    1
    14     7    14    1
    15     8    15    1
    16     8    16    1
    17     8    17    1
