@<TRIPOS>MOLECULE
IMPHY008152
 37 39 0 0 0
SMALL
GASTEIGER

@<TRIPOS>ATOM
      1 O           7.3424   -1.5547    0.0000 O.2     1  UNL1       -0.4591
      2 O           3.7702   -1.7847    0.0000 O.2     1  UNL1       -0.4183
      3 O           5.5301   -2.7500    0.0000 O.3     1  UNL1       -0.4884
      4 O           2.0000   -1.7742    0.0000 O.2     1  UNL1       -0.2452
      5 C           5.5301    0.2500    0.0000 C.ar    1  UNL1       -0.0220
      6 C           6.3961   -0.2500    0.0000 C.ar    1  UNL1        0.0280
      7 C           4.6641   -0.2500    0.0000 C.ar    1  UNL1        0.0255
      8 C           5.5301    1.2500    0.0000 C.3     1  UNL1       -0.0079
      9 C           6.3961   -1.2500    0.0000 C.ar    1  UNL1        0.1802
     10 C           4.6641   -1.2500    0.0000 C.ar    1  UNL1        0.1844
     11 C           5.5301   -1.7500    0.0000 C.ar    1  UNL1        0.2061
     12 C           7.3424    0.0547    0.0000 C.ar    1  UNL1       -0.0157
     13 C           3.7702    0.2847    0.0000 C.ar    1  UNL1       -0.0439
     14 C           6.3961    1.7500    0.0000 C.2     1  UNL1       -0.0809
     15 C           7.9260   -0.7500    0.0000 C.ar    1  UNL1        0.0933
     16 C           6.3961    2.7500    0.0000 C.2     1  UNL1       -0.0793
     17 C           2.8641   -0.2292    0.0000 C.ar    1  UNL1        0.0236
     18 C           2.8641   -1.2708    0.0000 C.ar    1  UNL1        0.3373
     19 C           7.2622    3.2500    0.0000 C.3     1  UNL1       -0.0440
     20 C           5.5301    3.2500    0.0000 C.3     1  UNL1       -0.0440
     21 C           6.3961   -3.2500    0.0000 C.3     1  UNL1        0.0791
     22 H           5.3181    1.8326    0.0000 H       1  UNL1        0.0356
     23 H           4.9196    1.1423    0.0000 H       1  UNL1        0.0356
     24 H           7.5350    0.6441    0.0000 H       1  UNL1        0.0655
     25 H           3.7773    0.9046    0.0000 H       1  UNL1        0.0627
     26 H           6.9331    1.4400    0.0000 H       1  UNL1        0.0575
     27 H           8.5460   -0.7500    0.0000 H       1  UNL1        0.1030
     28 H           2.3284    0.0829    0.0000 H       1  UNL1        0.0689
     29 H           5.8401    3.7869    0.0000 H       1  UNL1        0.0274
     30 H           4.9932    3.5600    0.0000 H       1  UNL1        0.0274
     31 H           5.2201    2.7131    0.0000 H       1  UNL1        0.0274
     32 H           7.5722    2.7131    0.0000 H       1  UNL1        0.0274
     33 H           7.7991    3.5600    0.0000 H       1  UNL1        0.0274
     34 H           6.9522    3.7869    0.0000 H       1  UNL1        0.0274
     35 H           6.0862   -3.7869    0.0000 H       1  UNL1        0.0660
     36 H           6.9331   -3.5600    0.0000 H       1  UNL1        0.0660
     37 H           6.7062   -2.7131    0.0000 H       1  UNL1        0.0660
@<TRIPOS>BOND
     1     1     9   ar
     2     1    15   ar
     3     2    10   ar
     4     2    18   ar
     5     3    11    1
     6     3    21    1
     7     4    18    2
     8     5     6   ar
     9     5     7   ar
    10     5     8    1
    11     6     9   ar
    12     6    12   ar
    13     7    10   ar
    14     7    13   ar
    15     8    14    1
    16     8    22    1
    17     8    23    1
    18     9    11   ar
    19    10    11   ar
    20    12    15   ar
    21    12    24    1
    22    13    17   ar
    23    13    25    1
    24    14    16    2
    25    14    26    1
    26    15    27    1
    27    16    19    1
    28    16    20    1
    29    17    18   ar
    30    17    28    1
    31    19    32    1
    32    19    33    1
    33    19    34    1
    34    20    29    1
    35    20    30    1
    36    20    31    1
    37    21    35    1
    38    21    36    1
    39    21    37    1
