@<TRIPOS>MOLECULE
IMPHY013322
 56 59 0 0 0
SMALL
GASTEIGER

@<TRIPOS>ATOM
      1 O           3.4326   -1.8542    0.0000 O.3     1  UNL1       -0.3848
      2 O           2.4072   -0.9965    0.0000 O.3     1  UNL1       -0.3863
      3 O           7.0009   -0.8238    0.0000 O.3     1  UNL1       -0.3911
      4 O           2.5405    0.7249    0.0000 O.3     1  UNL1       -0.3887
      5 O           3.8107    2.5878    0.0000 O.3     1  UNL1       -0.3837
      6 O           6.7797    2.3888    0.0000 O.2     1  UNL1       -0.4674
      7 C           5.1928   -0.8198    0.0000 C.3     1  UNL1        0.0293
      8 C           4.2947   -1.3475    0.0000 C.3     1  UNL1        0.1072
      9 C           5.1767    0.2217    0.0000 C.3     1  UNL1       -0.0155
     10 C           4.3107    0.7217    0.0000 C.3     1  UNL1        0.0243
     11 C           4.2864   -2.4325    0.0000 C.3     1  UNL1       -0.0029
     12 C           3.3926   -0.8267    0.0000 C.3     1  UNL1        0.1111
     13 C           6.1447   -1.3404    0.0000 C.3     1  UNL1        0.0636
     14 C           3.4007    0.2149    0.0000 C.3     1  UNL1        0.0898
     15 C           5.2260   -2.9750    0.0000 C.3     1  UNL1       -0.0428
     16 C           4.3107    1.7217    0.0000 C.3     1  UNL1        0.0968
     17 C           6.1614   -2.4253    0.0000 C.3     1  UNL1       -0.0257
     18 C           6.0427    0.7217    0.0000 C.3     1  UNL1        0.0098
     19 C           6.0549   -0.3131    0.0000 C.3     1  UNL1       -0.0542
     20 C           3.7830   -3.2966    0.0000 C.3     1  UNL1       -0.0571
     21 C           3.3454   -2.7709    0.0000 C.3     1  UNL1       -0.0571
     22 C           5.1767    2.2217    0.0000 C.ar    1  UNL1        0.0249
     23 C           6.0427    1.7217    0.0000 C.ar    1  UNL1        0.1110
     24 C           3.3107    1.7217    0.0000 C.3     1  UNL1       -0.0314
     25 C           5.3859    3.1935    0.0000 C.ar    1  UNL1       -0.0177
     26 C           6.3746    3.2966    0.0000 C.ar    1  UNL1        0.0924
     27 H           5.9161   -0.1976    0.0000 H       1  UNL1        0.0316
     28 H           3.5778    1.1524    0.0000 H       1  UNL1        0.0361
     29 H           3.2838   -1.4371    0.0000 H       1  UNL1        0.0648
     30 H           6.1315   -0.7205    0.0000 H       1  UNL1        0.0600
     31 H           2.8608   -0.0899    0.0000 H       1  UNL1        0.0624
     32 H           4.8287   -3.4510    0.0000 H       1  UNL1        0.0272
     33 H           5.6270   -3.4479    0.0000 H       1  UNL1        0.0272
     34 H           6.3794   -3.0057    0.0000 H       1  UNL1        0.0290
     35 H           6.7706   -2.3098    0.0000 H       1  UNL1        0.0290
     36 H           6.2548    0.1391    0.0000 H       1  UNL1        0.0347
     37 H           6.6533    0.8294    0.0000 H       1  UNL1        0.0347
     38 H           6.3690   -0.8477    0.0000 H       1  UNL1        0.0237
     39 H           6.5894    0.0010    0.0000 H       1  UNL1        0.0237
     40 H           5.7408    0.2214    0.0000 H       1  UNL1        0.0237
     41 H           3.2473   -2.9845    0.0000 H       1  UNL1        0.0236
     42 H           3.4710   -3.8323    0.0000 H       1  UNL1        0.0236
     43 H           4.3188   -3.6087    0.0000 H       1  UNL1        0.0236
     44 H           3.1356   -2.1875    0.0000 H       1  UNL1        0.0236
     45 H           2.7619   -2.9807    0.0000 H       1  UNL1        0.0236
     46 H           3.5552   -3.3543    0.0000 H       1  UNL1        0.0236
     47 H           2.8212   -1.7512    0.0000 H       1  UNL1        0.2103
     48 H           3.3107    2.3417    0.0000 H       1  UNL1        0.0261
     49 H           2.6907    1.7217    0.0000 H       1  UNL1        0.0261
     50 H           3.3107    1.1017    0.0000 H       1  UNL1        0.0261
     51 H           2.0105   -0.5200    0.0000 H       1  UNL1        0.2100
     52 H           7.5437   -1.1234    0.0000 H       1  UNL1        0.2098
     53 H           2.0000    0.4211    0.0000 H       1  UNL1        0.2099
     54 H           3.1907    2.5878    0.0000 H       1  UNL1        0.2106
     55 H           4.9718    3.6550    0.0000 H       1  UNL1        0.0653
     56 H           6.6846    3.8335    0.0000 H       1  UNL1        0.1029
@<TRIPOS>BOND
     1     8     1    1
     2     1    47    1
     3    12     2    1
     4     2    51    1
     5    13     3    1
     6     3    52    1
     7    14     4    1
     8     4    53    1
     9    16     5    1
    10     5    54    1
    11     6    23   ar
    12     6    26   ar
    13     7     8    1
    14     7     9    1
    15     7    13    1
    16     7    19    1
    17     8    11    1
    18     8    12    1
    19     9    10    1
    20     9    18    1
    21     9    27    1
    22    10    14    1
    23    10    16    1
    24    10    28    1
    25    11    15    1
    26    11    20    1
    27    11    21    1
    28    12    14    1
    29    12    29    1
    30    13    17    1
    31    13    30    1
    32    14    31    1
    33    15    17    1
    34    15    32    1
    35    15    33    1
    36    16    22    1
    37    16    24    1
    38    17    34    1
    39    17    35    1
    40    18    23    1
    41    18    36    1
    42    18    37    1
    43    19    38    1
    44    19    39    1
    45    19    40    1
    46    20    41    1
    47    20    42    1
    48    20    43    1
    49    21    44    1
    50    21    45    1
    51    21    46    1
    52    22    23   ar
    53    22    25   ar
    54    24    48    1
    55    24    49    1
    56    24    50    1
    57    25    26   ar
    58    25    55    1
    59    26    56    1
