@<TRIPOS>MOLECULE
IMPHY005957
 69 73 0 0 0
SMALL
GASTEIGER

@<TRIPOS>ATOM
      1 O           9.6033    2.2622    0.0000 O.3     1  UNL1       -0.4570
      2 O           2.0000   -3.3527    0.0000 O.2     1  UNL1       -0.2968
      3 O          10.4096    0.6731    0.0000 O.2     1  UNL1       -0.2505
      4 C           7.3931   -0.3004    0.0000 C.3     1  UNL1       -0.0157
      5 C           7.3931   -1.3004    0.0000 C.3     1  UNL1       -0.0011
      6 C           8.3393    0.0044    0.0000 C.3     1  UNL1       -0.0215
      7 C           8.3393   -1.6051    0.0000 C.3     1  UNL1       -0.0428
      8 C           8.9229   -0.8004    0.0000 C.3     1  UNL1       -0.0481
      9 C           6.5271   -1.8004    0.0000 C.2     1  UNL1       -0.0414
     10 C           4.7510   -1.8072    0.0000 C.3     1  UNL1       -0.0027
     11 C           6.5271    0.1996    0.0000 C.3     1  UNL1       -0.0277
     12 C           5.6610   -1.3004    0.0000 C.2     1  UNL1       -0.0416
     13 C           4.7430   -2.8488    0.0000 C.3     1  UNL1       -0.0164
     14 C           8.6500    0.9549    0.0000 C.3     1  UNL1        0.0634
     15 C           7.3931    0.6996    0.0000 C.3     1  UNL1       -0.0582
     16 C           7.3931   -2.3004    0.0000 C.3     1  UNL1       -0.0550
     17 C           5.6610   -0.3004    0.0000 C.2     1  UNL1       -0.0795
     18 C           3.8076   -3.3985    0.0000 C.3     1  UNL1        0.0273
     19 C           5.6451   -3.3696    0.0000 C.3     1  UNL1       -0.0297
     20 C           3.8242   -1.2431    0.0000 C.3     1  UNL1       -0.0366
     21 C           6.5431   -2.8419    0.0000 C.2     1  UNL1       -0.0797
     22 C           8.0636    1.7649    0.0000 C.3     1  UNL1        0.0012
     23 C           4.7587   -0.8072    0.0000 C.3     1  UNL1       -0.0552
     24 C           2.8763   -1.7711    0.0000 C.3     1  UNL1        0.0072
     25 C           2.8680   -2.8560    0.0000 C.2     1  UNL1        0.1393
     26 C           9.6016    1.2623    0.0000 C.2     1  UNL1        0.3112
     27 C           8.6528    2.5729    0.0000 C.3     1  UNL1        0.1218
     28 C           3.3109   -4.2665    0.0000 C.3     1  UNL1       -0.0528
     29 C           4.3109   -4.2626    0.0000 C.3     1  UNL1       -0.0528
     30 C           8.3454    3.5245    0.0000 C.2     1  UNL1       -0.0511
     31 C           9.0158    4.2665    0.0000 C.2     1  UNL1       -0.0992
     32 H           9.1790    0.1362    0.0000 H       1  UNL1        0.0314
     33 H           8.0883   -2.1720    0.0000 H       1  UNL1        0.0274
     34 H           8.8767   -1.9143    0.0000 H       1  UNL1        0.0274
     35 H           9.3838   -1.2151    0.0000 H       1  UNL1        0.0269
     36 H           9.3838   -0.3856    0.0000 H       1  UNL1        0.0269
     37 H           6.9256    0.6746    0.0000 H       1  UNL1        0.0313
     38 H           6.1285    0.6746    0.0000 H       1  UNL1        0.0313
     39 H           4.7463   -3.6988    0.0000 H       1  UNL1        0.0321
     40 H           7.8102    0.8234    0.0000 H       1  UNL1        0.0418
     41 H           8.0131    0.6996    0.0000 H       1  UNL1        0.0236
     42 H           7.3931    1.3196    0.0000 H       1  UNL1        0.0236
     43 H           6.7731    0.6996    0.0000 H       1  UNL1        0.0236
     44 H           6.7731   -2.3004    0.0000 H       1  UNL1        0.0238
     45 H           7.3931   -2.9204    0.0000 H       1  UNL1        0.0238
     46 H           8.0131   -2.3004    0.0000 H       1  UNL1        0.0238
     47 H           5.1241    0.0096    0.0000 H       1  UNL1        0.0575
     48 H           5.2478   -3.8456    0.0000 H       1  UNL1        0.0311
     49 H           6.0460   -3.8425    0.0000 H       1  UNL1        0.0311
     50 H           4.2324   -0.7765    0.0000 H       1  UNL1        0.0278
     51 H           3.4343   -0.7611    0.0000 H       1  UNL1        0.0278
     52 H           7.0836   -3.1456    0.0000 H       1  UNL1        0.0575
     53 H           7.6036    2.1806    0.0000 H       1  UNL1        0.0312
     54 H           7.6021    1.3509    0.0000 H       1  UNL1        0.0312
     55 H           5.3787   -0.8120    0.0000 H       1  UNL1        0.0238
     56 H           4.7635   -0.1873    0.0000 H       1  UNL1        0.0238
     57 H           4.1388   -0.8025    0.0000 H       1  UNL1        0.0238
     58 H           2.6718   -1.1858    0.0000 H       1  UNL1        0.0342
     59 H           2.2647   -1.8725    0.0000 H       1  UNL1        0.0342
     60 H           9.0919    3.0106    0.0000 H       1  UNL1        0.0779
     61 H           3.7752   -4.5747    0.0000 H       1  UNL1        0.0239
     62 H           4.6230   -4.7984    0.0000 H       1  UNL1        0.0239
     63 H           4.8466   -3.9506    0.0000 H       1  UNL1        0.0239
     64 H           2.7728   -3.9586    0.0000 H       1  UNL1        0.0239
     65 H           3.0030   -4.8046    0.0000 H       1  UNL1        0.0239
     66 H           3.8490   -4.5744    0.0000 H       1  UNL1        0.0239
     67 H           7.7392    3.6545    0.0000 H       1  UNL1        0.0603
     68 H           9.6220    4.1365    0.0000 H       1  UNL1        0.0533
     69 H           8.8252    4.8565    0.0000 H       1  UNL1        0.0533
@<TRIPOS>BOND
     1     1    26    1
     2     1    27    1
     3     2    25    2
     4     3    26    2
     5     4     5    1
     6     4     6    1
     7     4    11    1
     8     4    15    1
     9     5     7    1
    10     5     9    1
    11     5    16    1
    12     6     8    1
    13     6    14    1
    14     6    32    1
    15     7     8    1
    16     7    33    1
    17     7    34    1
    18     8    35    1
    19     8    36    1
    20     9    12    1
    21     9    21    2
    22    10    12    1
    23    10    13    1
    24    10    20    1
    25    10    23    1
    26    11    17    1
    27    11    37    1
    28    11    38    1
    29    12    17    2
    30    13    18    1
    31    13    19    1
    32    13    39    1
    33    14    22    1
    34    14    26    1
    35    14    40    1
    36    15    41    1
    37    15    42    1
    38    15    43    1
    39    16    44    1
    40    16    45    1
    41    16    46    1
    42    17    47    1
    43    18    25    1
    44    18    28    1
    45    18    29    1
    46    19    21    1
    47    19    48    1
    48    19    49    1
    49    20    24    1
    50    20    50    1
    51    20    51    1
    52    21    52    1
    53    22    27    1
    54    22    53    1
    55    22    54    1
    56    23    55    1
    57    23    56    1
    58    23    57    1
    59    24    25    1
    60    24    58    1
    61    24    59    1
    62    27    30    1
    63    27    60    1
    64    28    64    1
    65    28    65    1
    66    28    66    1
    67    29    61    1
    68    29    62    1
    69    29    63    1
    70    30    31    2
    71    30    67    1
    72    31    68    1
    73    31    69    1
