@<TRIPOS>MOLECULE
IMPHY015889
 32 32 0 0 0
SMALL
GASTEIGER

@<TRIPOS>ATOM
      1 O           2.8660   -1.7500    0.0000 O.3     1  UNL1       -0.4604
      2 O           3.7320   -3.2500    0.0000 O.2     1  UNL1       -0.2512
      3 C           3.7320    1.7500    0.0000 C.3     1  UNL1       -0.0167
      4 C           2.8660    1.2500    0.0000 C.3     1  UNL1       -0.0424
      5 C           4.5981    1.2500    0.0000 C.3     1  UNL1       -0.0279
      6 C           2.8660    0.2500    0.0000 C.3     1  UNL1       -0.0280
      7 C           3.7320   -0.2500    0.0000 C.2     1  UNL1       -0.0365
      8 C           4.5981    0.2500    0.0000 C.2     1  UNL1       -0.0810
      9 C           3.7320    2.7500    0.0000 C.2     1  UNL1       -0.0763
     10 C           3.7320   -1.2500    0.0000 C.3     1  UNL1        0.1136
     11 C           4.5981    3.2500    0.0000 C.3     1  UNL1       -0.0438
     12 C           2.8660    3.2500    0.0000 C.2     1  UNL1       -0.0994
     13 C           2.8660   -2.7500    0.0000 C.2     1  UNL1        0.3042
     14 C           2.0000   -3.2500    0.0000 C.3     1  UNL1        0.0332
     15 H           4.2690    2.0600    0.0000 H       1  UNL1        0.0348
     16 H           2.6540    1.8326    0.0000 H       1  UNL1        0.0274
     17 H           2.2554    1.1423    0.0000 H       1  UNL1        0.0274
     18 H           5.2087    1.1423    0.0000 H       1  UNL1        0.0313
     19 H           4.8101    1.8326    0.0000 H       1  UNL1        0.0313
     20 H           2.2554    0.3577    0.0000 H       1  UNL1        0.0311
     21 H           2.6540   -0.3326    0.0000 H       1  UNL1        0.0311
     22 H           5.1350   -0.0600    0.0000 H       1  UNL1        0.0573
     23 H           3.9441   -1.8326    0.0000 H       1  UNL1        0.0745
     24 H           4.3426   -1.1423    0.0000 H       1  UNL1        0.0745
     25 H           4.9081    2.7131    0.0000 H       1  UNL1        0.0274
     26 H           5.1350    3.5600    0.0000 H       1  UNL1        0.0274
     27 H           4.2881    3.7869    0.0000 H       1  UNL1        0.0274
     28 H           2.8660    3.8700    0.0000 H       1  UNL1        0.0534
     29 H           2.3291    2.9400    0.0000 H       1  UNL1        0.0534
     30 H           1.6900   -2.7131    0.0000 H       1  UNL1        0.0342
     31 H           1.4631   -3.5600    0.0000 H       1  UNL1        0.0342
     32 H           2.3100   -3.7869    0.0000 H       1  UNL1        0.0342
@<TRIPOS>BOND
     1     1    10    1
     2     1    13    1
     3     2    13    2
     4     3     4    1
     5     3     5    1
     6     3     9    1
     7     3    15    1
     8     4     6    1
     9     4    16    1
    10     4    17    1
    11     5     8    1
    12     5    18    1
    13     5    19    1
    14     6     7    1
    15     6    20    1
    16     6    21    1
    17     7     8    2
    18     7    10    1
    19     8    22    1
    20     9    11    1
    21     9    12    2
    22    10    23    1
    23    10    24    1
    24    11    25    1
    25    11    26    1
    26    11    27    1
    27    12    28    1
    28    12    29    1
    29    13    14    1
    30    14    30    1
    31    14    31    1
    32    14    32    1
