@<TRIPOS>MOLECULE
IMPHY003808
 49 54 0 0 0
SMALL
GASTEIGER

@<TRIPOS>ATOM
      1 O           6.2268   -0.6037    0.0000 O.3     1  UNL1       -0.3372
      2 O           7.0043   -2.1940    0.0000 O.3     1  UNL1       -0.3503
      3 O           9.0607   -2.4316    0.0000 O.3     1  UNL1       -0.4521
      4 O          10.6340   -1.6740    0.0000 O.3     1  UNL1       -0.4526
      5 O           2.7792   -0.0820    0.0000 O.3     1  UNL1       -0.4526
      6 O           2.4061    1.5524    0.0000 O.3     1  UNL1       -0.4526
      7 N           7.4442    1.8425    0.0000 N.3     1  UNL1       -0.2956
      8 C           7.2216    0.8676    0.0000 C.3     1  UNL1        0.0665
      9 C           6.3207    0.4337    0.0000 C.3     1  UNL1        0.1069
     10 C           8.0912    0.2942    0.0000 C.ar    1  UNL1       -0.0158
     11 C           5.4197    0.8676    0.0000 C.ar    1  UNL1       -0.0101
     12 C           6.8207    2.6244    0.0000 C.3     1  UNL1        0.0033
     13 C           8.0214   -0.7451    0.0000 C.ar    1  UNL1        0.0580
     14 C           5.8207    2.6244    0.0000 C.3     1  UNL1       -0.0144
     15 C           5.1972    1.8425    0.0000 C.ar    1  UNL1       -0.0368
     16 C           7.0829   -1.1971    0.0000 C.3     1  UNL1        0.1895
     17 C           9.0576    0.7874    0.0000 C.ar    1  UNL1       -0.0529
     18 C           8.4191    2.0651    0.0000 C.3     1  UNL1       -0.0121
     19 C           8.9131   -1.3632    0.0000 C.ar    1  UNL1        0.1745
     20 C           4.6672    0.1474    0.0000 C.ar    1  UNL1       -0.0102
     21 C           4.2067    2.1649    0.0000 C.ar    1  UNL1       -0.0126
     22 C           9.8907   -0.8924    0.0000 C.ar    1  UNL1        0.1667
     23 C           3.6695    0.4468    0.0000 C.ar    1  UNL1        0.1666
     24 C           9.9634    0.1901    0.0000 C.ar    1  UNL1       -0.0158
     25 C           3.4377    1.4623    0.0000 C.ar    1  UNL1        0.1665
     26 C          10.1221   -2.6233    0.0000 C.3     1  UNL1        0.2332
     27 C           2.0000    0.5999    0.0000 C.3     1  UNL1        0.2332
     28 C           6.1017   -2.6244    0.0000 C.3     1  UNL1        0.0398
     29 H           8.0105    1.1842    0.0000 H       1  UNL1        0.0541
     30 H           5.5813    0.0144    0.0000 H       1  UNL1        0.0667
     31 H           7.3793    2.8934    0.0000 H       1  UNL1        0.0430
     32 H           6.6827    3.2288    0.0000 H       1  UNL1        0.0430
     33 H           5.9586    3.2288    0.0000 H       1  UNL1        0.0326
     34 H           5.2621    2.8934    0.0000 H       1  UNL1        0.0326
     35 H           6.5228   -1.4628    0.0000 H       1  UNL1        0.0966
     36 H           9.0920    1.4065    0.0000 H       1  UNL1        0.0622
     37 H           8.5570    1.4606    0.0000 H       1  UNL1        0.0391
     38 H           9.0236    2.2030    0.0000 H       1  UNL1        0.0391
     39 H           8.2811    2.6695    0.0000 H       1  UNL1        0.0391
     40 H           4.8121   -0.4554    0.0000 H       1  UNL1        0.0659
     41 H           4.0757    2.7709    0.0000 H       1  UNL1        0.0658
     42 H          10.5189    0.4656    0.0000 H       1  UNL1        0.0655
     43 H           9.9484   -3.2185    0.0000 H       1  UNL1        0.1166
     44 H          10.6957   -2.8586    0.0000 H       1  UNL1        0.1166
     45 H           1.4584    0.9017    0.0000 H       1  UNL1        0.1166
     46 H           1.6430    0.0931    0.0000 H       1  UNL1        0.1166
     47 H           5.8348   -2.0647    0.0000 H       1  UNL1        0.0525
     48 H           5.5421   -2.8912    0.0000 H       1  UNL1        0.0525
     49 H           6.3686   -3.1840    0.0000 H       1  UNL1        0.0525
@<TRIPOS>BOND
     1     1     9    1
     2     1    16    1
     3    16     2    1
     4     2    28    1
     5     3    19    1
     6     3    26    1
     7     4    22    1
     8     4    26    1
     9     5    23    1
    10     5    27    1
    11     6    25    1
    12     6    27    1
    13     7     8    1
    14     7    12    1
    15     7    18    1
    16     8     9    1
    17     8    10    1
    18     8    29    1
    19     9    11    1
    20     9    30    1
    21    10    13   ar
    22    10    17   ar
    23    11    15   ar
    24    11    20   ar
    25    12    14    1
    26    12    31    1
    27    12    32    1
    28    13    16    1
    29    13    19   ar
    30    14    15    1
    31    14    33    1
    32    14    34    1
    33    15    21   ar
    34    16    35    1
    35    17    24   ar
    36    17    36    1
    37    18    37    1
    38    18    38    1
    39    18    39    1
    40    19    22   ar
    41    20    23   ar
    42    20    40    1
    43    21    25   ar
    44    21    41    1
    45    22    24   ar
    46    23    25   ar
    47    24    42    1
    48    26    43    1
    49    26    44    1
    50    27    45    1
    51    27    46    1
    52    28    47    1
    53    28    48    1
    54    28    49    1
