@<TRIPOS>MOLECULE
IMPHY011454
 148 154 0 0 0
SMALL
GASTEIGER

@<TRIPOS>ATOM
      1 O           5.1643    2.8854    0.0000 O.3     1  UNL1       -0.3915
      2 O           6.8671   -3.3048    0.0000 O.3     1  UNL1       -0.3449
      3 O           5.7604    5.3481    0.0000 O.3     1  UNL1       -0.3422
      4 O           5.1350   -3.3048    0.0000 O.3     1  UNL1       -0.3405
      5 O           5.3966    7.0415    0.0000 O.3     1  UNL1       -0.3405
      6 O           6.8671   -5.3048    0.0000 O.3     1  UNL1       -0.3378
      7 O           7.7158    5.7681    0.0000 O.3     1  UNL1       -0.3841
      8 O           5.1350   -6.3048    0.0000 O.3     1  UNL1       -0.3864
      9 O           8.3298    7.6715    0.0000 O.3     1  UNL1       -0.3864
     10 O           3.4030   -5.3048    0.0000 O.3     1  UNL1       -0.3865
     11 O           6.9884    9.1550    0.0000 O.3     1  UNL1       -0.3865
     12 O           6.0010   -6.8048    0.0000 O.3     1  UNL1       -0.3405
     13 O           2.5369   -3.8048    0.0000 O.3     1  UNL1       -0.3924
     14 O           4.0552    8.5250    0.0000 O.3     1  UNL1       -0.3924
     15 O           8.5991   -6.3048    0.0000 O.3     1  UNL1       -0.3841
     16 O           8.5991   -8.3048    0.0000 O.3     1  UNL1       -0.3864
     17 O           6.8671   -9.3048    0.0000 O.3     1  UNL1       -0.3865
     18 O           5.1350   -9.3048    0.0000 O.3     1  UNL1       -0.3924
     19 C           7.7681    1.3954    0.0000 C.3     1  UNL1       -0.0229
     20 C           7.7643    2.3954    0.0000 C.3     1  UNL1       -0.0209
     21 C           6.9040    0.8921    0.0000 C.3     1  UNL1       -0.0271
     22 C           6.8920   -0.1495    0.0000 C.3     1  UNL1       -0.0252
     23 C           6.8963    2.8920    0.0000 C.3     1  UNL1       -0.0036
     24 C           7.7920   -0.6738    0.0000 C.3     1  UNL1       -0.0278
     25 C           8.6801    0.8921    0.0000 C.3     1  UNL1       -0.0466
     26 C           7.1018    3.8647    0.0000 C.3     1  UNL1       -0.0063
     27 C           6.0361    1.3887    0.0000 C.3     1  UNL1       -0.0227
     28 C           6.0322    2.3887    0.0000 C.3     1  UNL1        0.0592
     29 C           8.4987    3.0653    0.0000 C.3     1  UNL1       -0.0464
     30 C           8.6921   -0.1495    0.0000 C.3     1  UNL1       -0.0486
     31 C           7.8046   -1.7587    0.0000 C.3     1  UNL1       -0.0052
     32 C           8.0901    3.9715    0.0000 C.3     1  UNL1       -0.0467
     33 C           5.9421   -0.6738    0.0000 C.3     1  UNL1       -0.0447
     34 C           8.7522    1.5728    0.0000 C.3     1  UNL1       -0.0588
     35 C           8.7497    2.2255    0.0000 C.3     1  UNL1       -0.0587
     36 C           6.0279    0.3538    0.0000 C.3     1  UNL1       -0.0590
     37 C           6.8671   -2.3048    0.0000 C.3     1  UNL1        0.0672
     38 C           6.4311    4.6064    0.0000 C.3     1  UNL1        0.0733
     39 C           5.9295   -1.7587    0.0000 C.3     1  UNL1       -0.0255
     40 C           8.8046   -1.7510    0.0000 C.3     1  UNL1       -0.0572
     41 C           8.3113   -2.6208    0.0000 C.3     1  UNL1       -0.0572
     42 C           7.1728    5.2771    0.0000 C.3     1  UNL1       -0.0202
     43 C           5.6894    3.9357    0.0000 C.3     1  UNL1       -0.0354
     44 C           8.1245    4.9701    0.0000 C.3     1  UNL1       -0.0319
     45 C           6.0010   -3.8048    0.0000 C.3     1  UNL1        0.1886
     46 C           6.0674    6.2998    0.0000 C.3     1  UNL1        0.1885
     47 C           6.0010   -4.8048    0.0000 C.3     1  UNL1        0.1406
     48 C           7.0451    6.5098    0.0000 C.3     1  UNL1        0.1341
     49 C           8.8662    5.6408    0.0000 C.2     1  UNL1       -0.0852
     50 C           5.1350   -5.3048    0.0000 C.3     1  UNL1        0.1144
     51 C           7.3521    7.4615    0.0000 C.3     1  UNL1        0.1141
     52 C           4.2690   -3.8048    0.0000 C.3     1  UNL1        0.1130
     53 C           5.7036    7.9932    0.0000 C.3     1  UNL1        0.1130
     54 C           4.2690   -4.8048    0.0000 C.3     1  UNL1        0.1119
     55 C           6.6814    8.2032    0.0000 C.3     1  UNL1        0.1119
     56 C           9.8179    5.3338    0.0000 C.2     1  UNL1       -0.0796
     57 C           3.4030   -3.3048    0.0000 C.3     1  UNL1        0.0730
     58 C           5.0329    8.7350    0.0000 C.3     1  UNL1        0.0730
     59 C           6.8671   -6.3048    0.0000 C.3     1  UNL1        0.1885
     60 C          10.5597    6.0045    0.0000 C.3     1  UNL1       -0.0440
     61 C          10.0279    4.3561    0.0000 C.3     1  UNL1       -0.0440
     62 C           7.7331   -6.8048    0.0000 C.3     1  UNL1        0.1341
     63 C           7.7331   -7.8048    0.0000 C.3     1  UNL1        0.1141
     64 C           6.0010   -7.8048    0.0000 C.3     1  UNL1        0.1130
     65 C           6.8671   -8.3048    0.0000 C.3     1  UNL1        0.1119
     66 C           5.1350   -8.3048    0.0000 C.3     1  UNL1        0.0730
     67 H           7.6385    0.4642    0.0000 H       1  UNL1        0.0312
     68 H           6.2074    3.3899    0.0000 H       1  UNL1        0.0335
     69 H           8.5314   -1.0931    0.0000 H       1  UNL1        0.0312
     70 H           9.2921    0.7930    0.0000 H       1  UNL1        0.0271
     71 H           8.8824    1.4781    0.0000 H       1  UNL1        0.0271
     72 H           7.4044    4.6590    0.0000 H       1  UNL1        0.0332
     73 H           5.4251    1.4940    0.0000 H       1  UNL1        0.0293
     74 H           5.8263    0.8053    0.0000 H       1  UNL1        0.0293
     75 H           6.0298    3.0087    0.0000 H       1  UNL1        0.0596
     76 H           8.8661    2.5659    0.0000 H       1  UNL1        0.0271
     77 H           9.0340    3.3782    0.0000 H       1  UNL1        0.0271
     78 H           8.9079   -0.7307    0.0000 H       1  UNL1        0.0268
     79 H           9.3017   -0.0363    0.0000 H       1  UNL1        0.0268
     80 H           8.6790    4.1656    0.0000 H       1  UNL1        0.0269
     81 H           7.9590    4.5775    0.0000 H       1  UNL1        0.0269
     82 H           5.7398   -0.0877    0.0000 H       1  UNL1        0.0271
     83 H           5.3300   -0.7728    0.0000 H       1  UNL1        0.0271
     84 H           8.8623    0.9627    0.0000 H       1  UNL1        0.0235
     85 H           9.3624    1.6829    0.0000 H       1  UNL1        0.0235
     86 H           8.6422    2.1830    0.0000 H       1  UNL1        0.0235
     87 H           8.6444    1.6146    0.0000 H       1  UNL1        0.0235
     88 H           9.3607    2.1202    0.0000 H       1  UNL1        0.0235
     89 H           8.8550    2.8365    0.0000 H       1  UNL1        0.0235
     90 H           6.3400    0.8896    0.0000 H       1  UNL1        0.0235
     91 H           5.4922    0.6659    0.0000 H       1  UNL1        0.0235
     92 H           5.7158   -0.1819    0.0000 H       1  UNL1        0.0235
     93 H           7.4046   -2.6138    0.0000 H       1  UNL1        0.0602
     94 H           5.3199   -1.6456    0.0000 H       1  UNL1        0.0290
     95 H           5.7137   -2.3399    0.0000 H       1  UNL1        0.0290
     96 H           8.8094   -2.3710    0.0000 H       1  UNL1        0.0236
     97 H           9.4246   -1.7462    0.0000 H       1  UNL1        0.0236
     98 H           8.7998   -1.1310    0.0000 H       1  UNL1        0.0236
     99 H           7.7767   -2.9350    0.0000 H       1  UNL1        0.0236
    100 H           8.6254   -3.1554    0.0000 H       1  UNL1        0.0236
    101 H           8.8458   -2.3067    0.0000 H       1  UNL1        0.0236
    102 H           4.6286    2.5733    0.0000 H       1  UNL1        0.2098
    103 H           7.4627    5.8251    0.0000 H       1  UNL1        0.0296
    104 H           6.6834    5.6578    0.0000 H       1  UNL1        0.0296
    105 H           5.2735    4.3956    0.0000 H       1  UNL1        0.0257
    106 H           5.2295    3.5198    0.0000 H       1  UNL1        0.0257
    107 H           6.1052    3.4758    0.0000 H       1  UNL1        0.0257
    108 H           7.8346    4.4221    0.0000 H       1  UNL1        0.0308
    109 H           8.6139    4.5894    0.0000 H       1  UNL1        0.0308
    110 H           6.0010   -3.1848    0.0000 H       1  UNL1        0.0938
    111 H           6.4832    5.8400    0.0000 H       1  UNL1        0.0938
    112 H           6.0010   -5.4248    0.0000 H       1  UNL1        0.0675
    113 H           7.6512    6.6400    0.0000 H       1  UNL1        0.0671
    114 H           8.7360    6.2470    0.0000 H       1  UNL1        0.0571
    115 H           4.5981   -5.6148    0.0000 H       1  UNL1        0.0648
    116 H           7.5424    8.0516    0.0000 H       1  UNL1        0.0648
    117 H           4.2690   -3.1848    0.0000 H       1  UNL1        0.0647
    118 H           5.0975    7.8631    0.0000 H       1  UNL1        0.0647
    119 H           4.2690   -5.4248    0.0000 H       1  UNL1        0.0647
    120 H           6.2655    8.6631    0.0000 H       1  UNL1        0.0647
    121 H           8.3220    5.8983    0.0000 H       1  UNL1        0.2101
    122 H           3.8015   -2.8299    0.0000 H       1  UNL1        0.0584
    123 H           3.0044   -2.8299    0.0000 H       1  UNL1        0.0584
    124 H           5.5580    9.0646    0.0000 H       1  UNL1        0.0584
    125 H           4.7995    9.3093    0.0000 H       1  UNL1        0.0584
    126 H           7.4040   -5.9948    0.0000 H       1  UNL1        0.0938
    127 H           4.5981   -6.6148    0.0000 H       1  UNL1        0.2100
    128 H           8.5201    8.2616    0.0000 H       1  UNL1        0.2100
    129 H          10.9755    5.5446    0.0000 H       1  UNL1        0.0274
    130 H          11.0195    6.4204    0.0000 H       1  UNL1        0.0274
    131 H          10.1438    6.4644    0.0000 H       1  UNL1        0.0274
    132 H           9.4218    4.2259    0.0000 H       1  UNL1        0.0274
    133 H          10.1581    3.7499    0.0000 H       1  UNL1        0.0274
    134 H          10.6341    4.4863    0.0000 H       1  UNL1        0.0274
    135 H           3.4030   -5.9248    0.0000 H       1  UNL1        0.2100
    136 H           6.5725    9.6148    0.0000 H       1  UNL1        0.2100
    137 H           8.2700   -7.1148    0.0000 H       1  UNL1        0.0671
    138 H           2.0000   -3.4948    0.0000 H       1  UNL1        0.2095
    139 H           3.6394    8.9848    0.0000 H       1  UNL1        0.2095
    140 H           7.7331   -8.4248    0.0000 H       1  UNL1        0.0648
    141 H           5.4641   -7.4948    0.0000 H       1  UNL1        0.0647
    142 H           7.4040   -8.6148    0.0000 H       1  UNL1        0.0647
    143 H           8.5991   -5.6848    0.0000 H       1  UNL1        0.2101
    144 H           4.9230   -7.7222    0.0000 H       1  UNL1        0.0584
    145 H           4.5244   -8.4125    0.0000 H       1  UNL1        0.0584
    146 H           9.1360   -7.9948    0.0000 H       1  UNL1        0.2100
    147 H           7.4040   -9.6148    0.0000 H       1  UNL1        0.2100
    148 H           5.6720   -9.6148    0.0000 H       1  UNL1        0.2095
@<TRIPOS>BOND
     1    28     1    1
     2     1   102    1
     3    37     2    1
     4    45     2    1
     5    38     3    1
     6    46     3    1
     7     4    45    1
     8     4    52    1
     9     5    46    1
    10     5    53    1
    11    47     6    1
    12    59     6    1
    13    48     7    1
    14     7   121    1
    15    50     8    1
    16     8   127    1
    17    51     9    1
    18     9   128    1
    19    54    10    1
    20    10   135    1
    21    55    11    1
    22    11   136    1
    23    12    59    1
    24    12    64    1
    25    13    57    1
    26    13   138    1
    27    14    58    1
    28    14   139    1
    29    62    15    1
    30    15   143    1
    31    63    16    1
    32    16   146    1
    33    65    17    1
    34    17   147    1
    35    18    66    1
    36    18   148    1
    37    19    20    1
    38    19    21    1
    39    19    25    1
    40    19    34    1
    41    20    23    1
    42    20    29    1
    43    20    35    1
    44    21    22    1
    45    21    27    1
    46    21    67    1
    47    22    24    1
    48    22    33    1
    49    22    36    1
    50    23    26    1
    51    23    28    1
    52    23    68    1
    53    24    30    1
    54    24    31    1
    55    24    69    1
    56    25    30    1
    57    25    70    1
    58    25    71    1
    59    26    32    1
    60    26    38    1
    61    26    72    1
    62    27    28    1
    63    27    73    1
    64    27    74    1
    65    28    75    1
    66    29    32    1
    67    29    76    1
    68    29    77    1
    69    30    78    1
    70    30    79    1
    71    31    37    1
    72    31    40    1
    73    31    41    1
    74    32    80    1
    75    32    81    1
    76    33    39    1
    77    33    82    1
    78    33    83    1
    79    34    84    1
    80    34    85    1
    81    34    86    1
    82    35    87    1
    83    35    88    1
    84    35    89    1
    85    36    90    1
    86    36    91    1
    87    36    92    1
    88    37    39    1
    89    37    93    1
    90    38    42    1
    91    38    43    1
    92    39    94    1
    93    39    95    1
    94    40    96    1
    95    40    97    1
    96    40    98    1
    97    41    99    1
    98    41   100    1
    99    41   101    1
   100    42    44    1
   101    42   103    1
   102    42   104    1
   103    43   105    1
   104    43   106    1
   105    43   107    1
   106    44    49    1
   107    44   108    1
   108    44   109    1
   109    45    47    1
   110    45   110    1
   111    46    48    1
   112    46   111    1
   113    47    50    1
   114    47   112    1
   115    48    51    1
   116    48   113    1
   117    49    56    2
   118    49   114    1
   119    50    54    1
   120    50   115    1
   121    51    55    1
   122    51   116    1
   123    52    54    1
   124    52    57    1
   125    52   117    1
   126    53    55    1
   127    53    58    1
   128    53   118    1
   129    54   119    1
   130    55   120    1
   131    56    60    1
   132    56    61    1
   133    57   122    1
   134    57   123    1
   135    58   124    1
   136    58   125    1
   137    59    62    1
   138    59   126    1
   139    60   129    1
   140    60   130    1
   141    60   131    1
   142    61   132    1
   143    61   133    1
   144    61   134    1
   145    62    63    1
   146    62   137    1
   147    63    65    1
   148    63   140    1
   149    64    65    1
   150    64    66    1
   151    64   141    1
   152    65   142    1
   153    66   144    1
   154    66   145    1
