@<TRIPOS>MOLECULE
IMPHY007408
 61 64 0 0 0
SMALL
GASTEIGER

@<TRIPOS>ATOM
      1 O           5.7935    2.9252    0.0000 O.3     1  UNL1       -0.4848
      2 O           7.6613    4.7271    0.0000 O.3     1  UNL1       -0.3855
      3 O           6.1997   -0.3029    0.0000 O.2     1  UNL1       -0.4540
      4 O           8.9600    1.0393    0.0000 O.2     1  UNL1       -0.2866
      5 O           9.7959   -0.5973    0.0000 O.3     1  UNL1       -0.5052
      6 O           7.7712   -3.5918    0.0000 O.3     1  UNL1       -0.4943
      7 O           2.4561    2.0615    0.0000 O.3     1  UNL1       -0.5066
      8 C           6.7935    2.9252    0.0000 C.3     1  UNL1        0.1323
      9 C           7.2274    3.8262    0.0000 C.3     1  UNL1        0.0974
     10 C           7.4170    2.1434    0.0000 C.3     1  UNL1        0.0194
     11 C           7.1945    1.1684    0.0000 C.ar    1  UNL1        0.0466
     12 C           6.2935    0.7345    0.0000 C.ar    1  UNL1        0.1460
     13 C           6.3265    4.2600    0.0000 C.3     1  UNL1       -0.0328
     14 C           8.1284    3.3923    0.0000 C.3     1  UNL1       -0.0328
     15 C           5.3926    1.1684    0.0000 C.ar    1  UNL1        0.0595
     16 C           5.1700    2.1434    0.0000 C.ar    1  UNL1        0.1352
     17 C           8.0641    0.5950    0.0000 C.ar    1  UNL1        0.1999
     18 C           7.9943   -0.4443    0.0000 C.ar    1  UNL1        0.1063
     19 C           7.0558   -0.8962    0.0000 C.ar    1  UNL1        0.1463
     20 C           4.6400    0.4482    0.0000 C.ar    1  UNL1       -0.0441
     21 C           4.1796    2.4657    0.0000 C.ar    1  UNL1        0.0223
     22 C           8.9000   -1.0416    0.0000 C.ar    1  UNL1        0.1418
     23 C           6.9580   -1.9768    0.0000 C.ar    1  UNL1        0.0239
     24 C           8.8273   -2.1242    0.0000 C.ar    1  UNL1        0.0587
     25 C           3.4105    1.7631    0.0000 C.ar    1  UNL1        0.1204
     26 C           7.8498   -2.5949    0.0000 C.ar    1  UNL1        0.1342
     27 C           3.6423    0.7476    0.0000 C.ar    1  UNL1       -0.0193
     28 C           9.6557   -2.6843    0.0000 C.2     1  UNL1       -0.0512
     29 C          10.4132   -4.2419    0.0000 C.3     1  UNL1       -0.0283
     30 C           9.5848   -3.6818    0.0000 C.2     1  UNL1       -0.0806
     31 C          10.3423   -5.2394    0.0000 C.3     1  UNL1       -0.0592
     32 C          11.3125   -3.8046    0.0000 C.3     1  UNL1       -0.0592
     33 C           6.8686   -4.0222    0.0000 C.3     1  UNL1        0.0788
     34 H           6.4637    3.4502    0.0000 H       1  UNL1        0.0765
     35 H           7.9756    1.8743    0.0000 H       1  UNL1        0.0352
     36 H           7.8036    2.6281    0.0000 H       1  UNL1        0.0352
     37 H           6.5955    4.8186    0.0000 H       1  UNL1        0.0258
     38 H           5.7679    4.5290    0.0000 H       1  UNL1        0.0258
     39 H           6.0574    3.7014    0.0000 H       1  UNL1        0.0258
     40 H           7.8594    2.8337    0.0000 H       1  UNL1        0.0258
     41 H           8.6870    3.1233    0.0000 H       1  UNL1        0.0258
     42 H           8.3974    3.9509    0.0000 H       1  UNL1        0.0258
     43 H           7.3120    5.2394    0.0000 H       1  UNL1        0.2103
     44 H           4.7850   -0.1546    0.0000 H       1  UNL1        0.0627
     45 H           4.0486    3.0717    0.0000 H       1  UNL1        0.0691
     46 H           6.3964   -2.2394    0.0000 H       1  UNL1        0.0691
     47 H           3.1895    0.3241    0.0000 H       1  UNL1        0.0654
     48 H          10.2133   -2.4131    0.0000 H       1  UNL1        0.0623
     49 H          10.9268   -4.5892    0.0000 H       1  UNL1        0.0338
     50 H           9.0273   -3.9529    0.0000 H       1  UNL1        0.0575
     51 H          10.3122   -0.9406    0.0000 H       1  UNL1        0.2922
     52 H           2.0000    1.6416    0.0000 H       1  UNL1        0.2921
     53 H           9.7239   -5.1954    0.0000 H       1  UNL1        0.0235
     54 H          11.5837   -4.3621    0.0000 H       1  UNL1        0.0235
     55 H          11.8701   -3.5334    0.0000 H       1  UNL1        0.0235
     56 H          11.0414   -3.2470    0.0000 H       1  UNL1        0.0235
     57 H          10.2984   -5.8578    0.0000 H       1  UNL1        0.0235
     58 H          10.9608   -5.2833    0.0000 H       1  UNL1        0.0235
     59 H           6.6017   -3.4626    0.0000 H       1  UNL1        0.0660
     60 H           6.3089   -4.2891    0.0000 H       1  UNL1        0.0660
     61 H           7.1354   -4.5819    0.0000 H       1  UNL1        0.0660
@<TRIPOS>BOND
     1     1     8    1
     2     1    16    1
     3     2     9    1
     4     2    43    1
     5     3    12   ar
     6     3    19   ar
     7     4    17    2
     8     5    22    1
     9     5    51    1
    10     6    26    1
    11     6    33    1
    12     7    25    1
    13     7    52    1
    14     8     9    1
    15     8    10    1
    16     8    34    1
    17     9    13    1
    18     9    14    1
    19    10    11    1
    20    10    35    1
    21    10    36    1
    22    11    12   ar
    23    11    17   ar
    24    12    15    1
    25    13    37    1
    26    13    38    1
    27    13    39    1
    28    14    40    1
    29    14    41    1
    30    14    42    1
    31    15    16   ar
    32    15    20   ar
    33    16    21   ar
    34    17    18   ar
    35    18    19   ar
    36    18    22   ar
    37    19    23   ar
    38    20    27   ar
    39    20    44    1
    40    21    25   ar
    41    21    45    1
    42    22    24   ar
    43    23    26   ar
    44    23    46    1
    45    24    26   ar
    46    24    28    1
    47    25    27   ar
    48    27    47    1
    49    28    30    2
    50    28    48    1
    51    29    30    1
    52    29    31    1
    53    29    32    1
    54    29    49    1
    55    30    50    1
    56    31    53    1
    57    31    57    1
    58    31    58    1
    59    32    54    1
    60    32    55    1
    61    32    56    1
    62    33    59    1
    63    33    60    1
    64    33    61    1
