@<TRIPOS>MOLECULE
IMPHY017585
 22 22 0 0 0
SMALL
GASTEIGER

@<TRIPOS>ATOM
      1 O           2.8660   -0.5000    0.0000 O.3     1  UNL1       -0.4945
      2 O           6.3301    2.5000    0.0000 O.2     1  UNL1       -0.2963
      3 C           4.5981   -0.5000    0.0000 C.ar    1  UNL1        0.0167
      4 C           3.7320   -1.0000    0.0000 C.ar    1  UNL1        0.1272
      5 C           5.4641   -1.0000    0.0000 C.ar    1  UNL1       -0.0511
      6 C           3.7320   -2.0000    0.0000 C.ar    1  UNL1       -0.0194
      7 C           5.4641   -2.0000    0.0000 C.ar    1  UNL1       -0.0610
      8 C           4.5981   -2.5000    0.0000 C.ar    1  UNL1       -0.0583
      9 C           4.5981    0.5000    0.0000 C.2     1  UNL1       -0.0481
     10 C           5.4641    1.0000    0.0000 C.2     1  UNL1       -0.0218
     11 C           2.0000   -1.0000    0.0000 C.3     1  UNL1        0.0788
     12 C           5.4641    2.0000    0.0000 C.2     1  UNL1        0.1431
     13 H           6.0010   -0.6900    0.0000 H       1  UNL1        0.0625
     14 H           3.1951   -2.3100    0.0000 H       1  UNL1        0.0654
     15 H           6.0010   -2.3100    0.0000 H       1  UNL1        0.0618
     16 H           4.5981   -3.1200    0.0000 H       1  UNL1        0.0619
     17 H           4.0611    0.8100    0.0000 H       1  UNL1        0.0626
     18 H           6.0010    0.6900    0.0000 H       1  UNL1        0.0650
     19 H           1.6900   -0.4631    0.0000 H       1  UNL1        0.0660
     20 H           1.4631   -1.3100    0.0000 H       1  UNL1        0.0660
     21 H           2.3100   -1.5369    0.0000 H       1  UNL1        0.0660
     22 H           4.9272    2.3100    0.0000 H       1  UNL1        0.1075
@<TRIPOS>BOND
     1     1     4    1
     2     1    11    1
     3     2    12    2
     4     3     4   ar
     5     3     5   ar
     6     3     9    1
     7     4     6   ar
     8     5     7   ar
     9     5    13    1
    10     6     8   ar
    11     6    14    1
    12     7     8   ar
    13     7    15    1
    14     8    16    1
    15     9    10    2
    16     9    17    1
    17    10    12    1
    18    10    18    1
    19    11    19    1
    20    11    20    1
    21    11    21    1
    22    12    22    1
