@<TRIPOS>MOLECULE
IMPHY012788
 74 78 0 0 0
SMALL
GASTEIGER

@<TRIPOS>ATOM
      1 O           6.8671   -3.8696    0.0000 O.3     1  UNL1       -0.3366
      2 O           5.1350   -1.8696    0.0000 O.3     1  UNL1       -0.3313
      3 O           7.7331   -2.3696    0.0000 O.3     1  UNL1       -0.3431
      4 O           5.1350   -4.8696    0.0000 O.3     1  UNL1       -0.3863
      5 O           6.8671   -1.8696    0.0000 O.3     1  UNL1       -0.4606
      6 O           3.4030   -3.8696    0.0000 O.3     1  UNL1       -0.3865
      7 O           8.5991   -4.8696    0.0000 O.3     1  UNL1       -0.3841
      8 O          10.3312   -3.8696    0.0000 O.3     1  UNL1       -0.3864
      9 O          10.3312   -1.8696    0.0000 O.3     1  UNL1       -0.3866
     10 O           2.5369   -2.3696    0.0000 O.3     1  UNL1       -0.3924
     11 O           8.6230    1.1930    0.0000 O.2     1  UNL1       -0.4544
     12 O           5.1208    1.2096    0.0000 O.3     1  UNL1       -0.5058
     13 O           6.0308    2.7030    0.0000 O.2     1  UNL1       -0.2869
     14 O          12.0987    4.1796    0.0000 O.3     1  UNL1       -0.4951
     15 C           6.0010   -3.3696    0.0000 C.3     1  UNL1        0.1519
     16 C           5.1350   -3.8696    0.0000 C.3     1  UNL1        0.1155
     17 C           4.2690   -3.3696    0.0000 C.3     1  UNL1        0.1120
     18 C           7.7331   -3.3696    0.0000 C.3     1  UNL1        0.1885
     19 C           8.5991   -3.8696    0.0000 C.3     1  UNL1        0.1341
     20 C           6.0010   -2.3696    0.0000 C.3     1  UNL1        0.2312
     21 C           4.2690   -2.3696    0.0000 C.3     1  UNL1        0.1140
     22 C           9.4651   -3.3696    0.0000 C.3     1  UNL1        0.1140
     23 C           9.4651   -2.3696    0.0000 C.3     1  UNL1        0.1095
     24 C           8.5991   -1.8696    0.0000 C.3     1  UNL1        0.0873
     25 C           3.4030   -1.8696    0.0000 C.3     1  UNL1        0.0731
     26 C           8.5991   -0.8696    0.0000 C.3     1  UNL1       -0.0361
     27 C           6.8671   -0.8696    0.0000 C.ar    1  UNL1        0.1310
     28 C           7.7671   -0.3453    0.0000 C.ar    1  UNL1        0.0235
     29 C           5.9670   -0.3453    0.0000 C.ar    1  UNL1        0.0226
     30 C           7.7551    0.6963    0.0000 C.ar    1  UNL1        0.1462
     31 C           5.9790    0.6963    0.0000 C.ar    1  UNL1        0.1347
     32 C           6.8910    1.1996    0.0000 C.ar    1  UNL1        0.1055
     33 C           6.8948    2.1996    0.0000 C.ar    1  UNL1        0.1966
     34 C           8.6269    2.1929    0.0000 C.ar    1  UNL1        0.1392
     35 C           7.7628    2.6963    0.0000 C.ar    1  UNL1        0.0288
     36 C           9.4948    2.6896    0.0000 C.ar    1  UNL1        0.0176
     37 C           9.4987    3.6896    0.0000 C.ar    1  UNL1       -0.0476
     38 C          10.3589    2.1863    0.0000 C.ar    1  UNL1       -0.0476
     39 C          10.3666    4.1862    0.0000 C.ar    1  UNL1       -0.0193
     40 C          11.2269    2.6829    0.0000 C.ar    1  UNL1       -0.0193
     41 C          11.2307    3.6829    0.0000 C.ar    1  UNL1        0.1201
     42 C          12.1025    5.1796    0.0000 C.3     1  UNL1        0.0788
     43 H           6.0010   -3.9896    0.0000 H       1  UNL1        0.0687
     44 H           4.5981   -4.1796    0.0000 H       1  UNL1        0.0648
     45 H           4.2690   -3.9896    0.0000 H       1  UNL1        0.0647
     46 H           7.7331   -3.9896    0.0000 H       1  UNL1        0.0938
     47 H           9.1360   -4.1796    0.0000 H       1  UNL1        0.0671
     48 H           6.0010   -1.7496    0.0000 H       1  UNL1        0.1084
     49 H           4.2690   -1.7496    0.0000 H       1  UNL1        0.0647
     50 H           9.4651   -3.9896    0.0000 H       1  UNL1        0.0648
     51 H          10.0021   -2.6796    0.0000 H       1  UNL1        0.0646
     52 H           8.0622   -1.5596    0.0000 H       1  UNL1        0.0621
     53 H           3.8015   -1.3946    0.0000 H       1  UNL1        0.0584
     54 H           3.0044   -1.3946    0.0000 H       1  UNL1        0.0584
     55 H           9.2191   -0.8696    0.0000 H       1  UNL1        0.0255
     56 H           8.5991   -0.2496    0.0000 H       1  UNL1        0.0255
     57 H           7.9791   -0.8696    0.0000 H       1  UNL1        0.0255
     58 H           4.5981   -5.1796    0.0000 H       1  UNL1        0.2100
     59 H           3.4030   -4.4896    0.0000 H       1  UNL1        0.2100
     60 H           9.1360   -5.1796    0.0000 H       1  UNL1        0.2101
     61 H          10.8681   -3.5596    0.0000 H       1  UNL1        0.2100
     62 H          10.8681   -2.1796    0.0000 H       1  UNL1        0.2100
     63 H           2.0000   -2.0596    0.0000 H       1  UNL1        0.2095
     64 H           8.3064   -0.6511    0.0000 H       1  UNL1        0.0691
     65 H           5.4277   -0.6511    0.0000 H       1  UNL1        0.0691
     66 H           7.7652    3.3163    0.0000 H       1  UNL1        0.0693
     67 H           4.5792    0.9079    0.0000 H       1  UNL1        0.2922
     68 H           8.9630    4.0017    0.0000 H       1  UNL1        0.0626
     69 H          10.3565    1.5663    0.0000 H       1  UNL1        0.0626
     70 H          10.3690    4.8062    0.0000 H       1  UNL1        0.0654
     71 H          11.7626    2.3708    0.0000 H       1  UNL1        0.0654
     72 H          12.7225    5.1772    0.0000 H       1  UNL1        0.0660
     73 H          12.1049    5.7996    0.0000 H       1  UNL1        0.0660
     74 H          11.4825    5.1819    0.0000 H       1  UNL1        0.0660
@<TRIPOS>BOND
     1    15     1    1
     2    18     1    1
     3     2    20    1
     4     2    21    1
     5     3    18    1
     6     3    24    1
     7    16     4    1
     8     4    58    1
     9    20     5    1
    10     5    27    1
    11    17     6    1
    12     6    59    1
    13    19     7    1
    14     7    60    1
    15    22     8    1
    16     8    61    1
    17    23     9    1
    18     9    62    1
    19    10    25    1
    20    10    63    1
    21    11    30   ar
    22    11    34   ar
    23    12    31    1
    24    12    67    1
    25    13    33    2
    26    14    41    1
    27    14    42    1
    28    15    16    1
    29    15    20    1
    30    15    43    1
    31    16    17    1
    32    16    44    1
    33    17    21    1
    34    17    45    1
    35    18    19    1
    36    18    46    1
    37    19    22    1
    38    19    47    1
    39    20    48    1
    40    21    25    1
    41    21    49    1
    42    22    23    1
    43    22    50    1
    44    23    24    1
    45    23    51    1
    46    24    26    1
    47    24    52    1
    48    25    53    1
    49    25    54    1
    50    26    55    1
    51    26    56    1
    52    26    57    1
    53    27    28   ar
    54    27    29   ar
    55    28    30   ar
    56    28    64    1
    57    29    31   ar
    58    29    65    1
    59    30    32   ar
    60    31    32   ar
    61    32    33   ar
    62    33    35   ar
    63    34    35   ar
    64    34    36    1
    65    35    66    1
    66    36    37   ar
    67    36    38   ar
    68    37    39   ar
    69    37    68    1
    70    38    40   ar
    71    38    69    1
    72    39    41   ar
    73    39    70    1
    74    40    41   ar
    75    40    71    1
    76    42    72    1
    77    42    73    1
    78    42    74    1
