@<TRIPOS>MOLECULE
IMPHY001879
 17 16 0 0 0
SMALL
GASTEIGER

@<TRIPOS>ATOM
      1 S           4.5981   -0.2500    0.0000 S.3     1  UNL1       -0.1526
      2 C           5.4641    0.2500    0.0000 C.3     1  UNL1        0.0118
      3 C           3.7320    0.2500    0.0000 C.3     1  UNL1        0.0118
      4 C           2.8660   -0.2500    0.0000 C.2     1  UNL1       -0.0813
      5 C           6.3301   -0.2500    0.0000 C.2     1  UNL1       -0.0813
      6 C           2.0000    0.2500    0.0000 C.2     1  UNL1       -0.1019
      7 C           7.1962    0.2500    0.0000 C.2     1  UNL1       -0.1019
      8 H           4.1306    0.7249    0.0000 H       1  UNL1        0.0419
      9 H           3.3335    0.7249    0.0000 H       1  UNL1        0.0419
     10 H           5.8626    0.7249    0.0000 H       1  UNL1        0.0419
     11 H           5.0656    0.7249    0.0000 H       1  UNL1        0.0419
     12 H           2.8660   -0.8700    0.0000 H       1  UNL1        0.0574
     13 H           6.3301   -0.8700    0.0000 H       1  UNL1        0.0574
     14 H           2.0000    0.8700    0.0000 H       1  UNL1        0.0532
     15 H           1.4631   -0.0600    0.0000 H       1  UNL1        0.0532
     16 H           7.7331   -0.0600    0.0000 H       1  UNL1        0.0532
     17 H           7.1962    0.8700    0.0000 H       1  UNL1        0.0532
@<TRIPOS>BOND
     1     1     2    1
     2     1     3    1
     3     2     5    1
     4     2    10    1
     5     2    11    1
     6     3     4    1
     7     3     8    1
     8     3     9    1
     9     4     6    2
    10     4    12    1
    11     5     7    2
    12     5    13    1
    13     6    14    1
    14     6    15    1
    15     7    16    1
    16     7    17    1
