@<TRIPOS>MOLECULE
IMPHY014337
 82 87 0 0 0
SMALL
GASTEIGER

@<TRIPOS>ATOM
      1 O           8.6322    1.6674    0.0000 O.3     1  UNL1       -0.3877
      2 O           6.8671   -3.5361    0.0000 O.3     1  UNL1       -0.3454
      3 O           5.0281    5.1811    0.0000 O.3     1  UNL1       -0.4571
      4 O           5.1350   -3.5361    0.0000 O.3     1  UNL1       -0.3405
      5 O           5.6632    6.8461    0.0000 O.2     1  UNL1       -0.2456
      6 O           6.8671   -5.5361    0.0000 O.3     1  UNL1       -0.3841
      7 O           5.1350   -6.5361    0.0000 O.3     1  UNL1       -0.3864
      8 O           3.4030   -5.5361    0.0000 O.3     1  UNL1       -0.3865
      9 O           2.5369   -4.0361    0.0000 O.3     1  UNL1       -0.3924
     10 C           7.7643    2.1641    0.0000 C.3     1  UNL1        0.0751
     11 C           7.7681    1.1641    0.0000 C.3     1  UNL1       -0.0083
     12 C           6.9040    0.6608    0.0000 C.3     1  UNL1       -0.0299
     13 C           6.8963    2.6608    0.0000 C.3     1  UNL1        0.0036
     14 C           6.8920   -0.3808    0.0000 C.3     1  UNL1       -0.0259
     15 C           7.7920   -0.9051    0.0000 C.3     1  UNL1       -0.0330
     16 C           6.0361    1.1574    0.0000 C.3     1  UNL1       -0.0488
     17 C           6.0322    2.1574    0.0000 C.3     1  UNL1       -0.0442
     18 C           7.1018    3.6334    0.0000 C.3     1  UNL1       -0.0081
     19 C           8.6801    0.6608    0.0000 C.3     1  UNL1       -0.0470
     20 C           8.4987    2.8340    0.0000 C.3     1  UNL1       -0.0226
     21 C           8.6921   -0.3808    0.0000 C.3     1  UNL1       -0.0493
     22 C           8.0901    3.7402    0.0000 C.3     1  UNL1       -0.0432
     23 C           5.9421   -0.9051    0.0000 C.3     1  UNL1       -0.0448
     24 C           7.8046   -1.9900    0.0000 C.3     1  UNL1       -0.0232
     25 C           6.0284    3.1574    0.0000 C.3     1  UNL1       -0.0564
     26 C           6.0279    0.1225    0.0000 C.3     1  UNL1       -0.0590
     27 C           5.9295   -1.9900    0.0000 C.3     1  UNL1       -0.0260
     28 C           6.8671   -2.5361    0.0000 C.3     1  UNL1        0.0621
     29 C           6.4311    4.3751    0.0000 C.2     1  UNL1       -0.0222
     30 C           5.4368    4.2684    0.0000 C.3     1  UNL1        0.1147
     31 C           6.6369    5.3537    0.0000 C.2     1  UNL1        0.0252
     32 C           6.0010   -4.0361    0.0000 C.3     1  UNL1        0.1882
     33 C           5.7698    5.8518    0.0000 C.2     1  UNL1        0.3323
     34 C           6.0010   -5.0361    0.0000 C.3     1  UNL1        0.1341
     35 C           5.1350   -5.5361    0.0000 C.3     1  UNL1        0.1141
     36 C           4.2690   -4.0361    0.0000 C.3     1  UNL1        0.1130
     37 C           4.2690   -5.0361    0.0000 C.3     1  UNL1        0.1119
     38 C           3.4030   -3.5361    0.0000 C.3     1  UNL1        0.0730
     39 H           8.4993    1.5976    0.0000 H       1  UNL1        0.0331
     40 H           7.6385    0.2329    0.0000 H       1  UNL1        0.0310
     41 H           8.5314   -1.3244    0.0000 H       1  UNL1        0.0307
     42 H           5.4251    1.2627    0.0000 H       1  UNL1        0.0268
     43 H           5.8263    0.5740    0.0000 H       1  UNL1        0.0268
     44 H           5.8179    2.7392    0.0000 H       1  UNL1        0.0272
     45 H           5.4221    2.0474    0.0000 H       1  UNL1        0.0272
     46 H           7.3225    4.2128    0.0000 H       1  UNL1        0.0353
     47 H           9.2921    0.5617    0.0000 H       1  UNL1        0.0269
     48 H           8.8824    1.2468    0.0000 H       1  UNL1        0.0269
     49 H           8.8661    2.3346    0.0000 H       1  UNL1        0.0293
     50 H           9.0340    3.1468    0.0000 H       1  UNL1        0.0293
     51 H           8.9079   -0.9620    0.0000 H       1  UNL1        0.0268
     52 H           9.3017   -0.2677    0.0000 H       1  UNL1        0.0268
     53 H           8.6790    3.9343    0.0000 H       1  UNL1        0.0272
     54 H           7.9590    4.3462    0.0000 H       1  UNL1        0.0272
     55 H           5.7398   -0.3190    0.0000 H       1  UNL1        0.0271
     56 H           5.3300   -1.0041    0.0000 H       1  UNL1        0.0271
     57 H           8.0204   -2.5712    0.0000 H       1  UNL1        0.0293
     58 H           8.4142   -1.8769    0.0000 H       1  UNL1        0.0293
     59 H           6.3363    3.6955    0.0000 H       1  UNL1        0.0236
     60 H           5.4902    3.4653    0.0000 H       1  UNL1        0.0236
     61 H           5.7204    2.6193    0.0000 H       1  UNL1        0.0236
     62 H           6.3400    0.6583    0.0000 H       1  UNL1        0.0235
     63 H           5.4922    0.4346    0.0000 H       1  UNL1        0.0235
     64 H           5.7158   -0.4132    0.0000 H       1  UNL1        0.0235
     65 H           5.3199   -1.8769    0.0000 H       1  UNL1        0.0290
     66 H           5.7137   -2.5712    0.0000 H       1  UNL1        0.0290
     67 H           7.4046   -2.8451    0.0000 H       1  UNL1        0.0597
     68 H           9.1680    1.9795    0.0000 H       1  UNL1        0.2102
     69 H           4.8475    4.0756    0.0000 H       1  UNL1        0.0746
     70 H           5.5670    3.6623    0.0000 H       1  UNL1        0.0746
     71 H           7.2028    5.6070    0.0000 H       1  UNL1        0.0689
     72 H           6.0010   -3.4161    0.0000 H       1  UNL1        0.0937
     73 H           6.0010   -5.6561    0.0000 H       1  UNL1        0.0671
     74 H           4.5981   -5.8461    0.0000 H       1  UNL1        0.0648
     75 H           4.2690   -3.4161    0.0000 H       1  UNL1        0.0647
     76 H           4.2690   -5.6561    0.0000 H       1  UNL1        0.0647
     77 H           6.8671   -6.1561    0.0000 H       1  UNL1        0.2101
     78 H           3.8015   -3.0612    0.0000 H       1  UNL1        0.0584
     79 H           3.0044   -3.0612    0.0000 H       1  UNL1        0.0584
     80 H           4.5981   -6.8461    0.0000 H       1  UNL1        0.2100
     81 H           3.4030   -6.1561    0.0000 H       1  UNL1        0.2100
     82 H           2.0000   -3.7261    0.0000 H       1  UNL1        0.2095
@<TRIPOS>BOND
     1    10     1    1
     2     1    68    1
     3    28     2    1
     4    32     2    1
     5     3    30    1
     6     3    33    1
     7     4    32    1
     8     4    36    1
     9     5    33    2
    10    34     6    1
    11     6    77    1
    12    35     7    1
    13     7    80    1
    14    37     8    1
    15     8    81    1
    16     9    38    1
    17     9    82    1
    18    10    11    1
    19    10    13    1
    20    10    20    1
    21    11    12    1
    22    11    19    1
    23    11    39    1
    24    12    14    1
    25    12    16    1
    26    12    40    1
    27    13    17    1
    28    13    18    1
    29    13    25    1
    30    14    15    1
    31    14    23    1
    32    14    26    1
    33    15    21    1
    34    15    24    1
    35    15    41    1
    36    16    17    1
    37    16    42    1
    38    16    43    1
    39    17    44    1
    40    17    45    1
    41    18    22    1
    42    18    29    1
    43    18    46    1
    44    19    21    1
    45    19    47    1
    46    19    48    1
    47    20    22    1
    48    20    49    1
    49    20    50    1
    50    21    51    1
    51    21    52    1
    52    22    53    1
    53    22    54    1
    54    23    27    1
    55    23    55    1
    56    23    56    1
    57    24    28    1
    58    24    57    1
    59    24    58    1
    60    25    59    1
    61    25    60    1
    62    25    61    1
    63    26    62    1
    64    26    63    1
    65    26    64    1
    66    27    28    1
    67    27    65    1
    68    27    66    1
    69    28    67    1
    70    29    30    1
    71    29    31    2
    72    30    69    1
    73    30    70    1
    74    31    33    1
    75    31    71    1
    76    32    34    1
    77    32    72    1
    78    34    35    1
    79    34    73    1
    80    35    37    1
    81    35    74    1
    82    36    37    1
    83    36    38    1
    84    36    75    1
    85    37    76    1
    86    38    78    1
    87    38    79    1
