@<TRIPOS>MOLECULE
IMPHY001905
 43 44 0 0 0
SMALL
GASTEIGER

@<TRIPOS>ATOM
      1 O           3.9511    0.8944    0.0000 O.3     1  UNL1       -0.3673
      2 O           6.1622    2.4635    0.0000 O.3     1  UNL1       -0.3866
      3 C           2.9511    0.8944    0.0000 C.3     1  UNL1        0.0704
      4 C           2.9511   -0.1056    0.0000 C.3     1  UNL1       -0.0084
      5 C           2.6420    1.8455    0.0000 C.3     1  UNL1       -0.0213
      6 C           4.2601    1.8455    0.0000 C.3     1  UNL1        0.0876
      7 C           3.4511    2.4333    0.0000 C.3     1  UNL1       -0.0213
      8 C           2.0850   -0.6056    0.0000 C.3     1  UNL1       -0.0436
      9 C           3.8171   -0.6056    0.0000 C.3     1  UNL1       -0.0291
     10 C           5.2111    2.1545    0.0000 C.3     1  UNL1        0.0865
     11 C           2.0000    0.5854    0.0000 C.3     1  UNL1       -0.0355
     12 C           2.0850   -1.6056    0.0000 C.3     1  UNL1       -0.0317
     13 C           3.8171   -1.6056    0.0000 C.2     1  UNL1       -0.0847
     14 C           2.9511   -2.1056    0.0000 C.2     1  UNL1       -0.0765
     15 C           4.9021    3.1056    0.0000 C.3     1  UNL1       -0.0339
     16 C           5.5202    1.2034    0.0000 C.3     1  UNL1       -0.0339
     17 C           2.9511   -3.1056    0.0000 C.3     1  UNL1       -0.0438
     18 H           3.4880    0.2044    0.0000 H       1  UNL1        0.0331
     19 H           2.3320    2.3824    0.0000 H       1  UNL1        0.0294
     20 H           2.0756    1.5933    0.0000 H       1  UNL1        0.0294
     21 H           4.6985    1.4071    0.0000 H       1  UNL1        0.0625
     22 H           3.8659    2.8940    0.0000 H       1  UNL1        0.0292
     23 H           3.0362    2.8940    0.0000 H       1  UNL1        0.0292
     24 H           1.8730   -0.0230    0.0000 H       1  UNL1        0.0272
     25 H           1.4744   -0.7132    0.0000 H       1  UNL1        0.0272
     26 H           4.4277   -0.7132    0.0000 H       1  UNL1        0.0311
     27 H           4.0291   -0.0230    0.0000 H       1  UNL1        0.0311
     28 H           1.8084    1.1751    0.0000 H       1  UNL1        0.0257
     29 H           1.4103    0.3938    0.0000 H       1  UNL1        0.0257
     30 H           2.1916   -0.0042    0.0000 H       1  UNL1        0.0257
     31 H           1.4744   -1.4979    0.0000 H       1  UNL1        0.0310
     32 H           1.8730   -2.1882    0.0000 H       1  UNL1        0.0310
     33 H           4.3540   -1.9156    0.0000 H       1  UNL1        0.0572
     34 H           5.4918    3.2972    0.0000 H       1  UNL1        0.0258
     35 H           4.7105    3.6952    0.0000 H       1  UNL1        0.0258
     36 H           4.3125    2.9140    0.0000 H       1  UNL1        0.0258
     37 H           4.9305    1.0119    0.0000 H       1  UNL1        0.0258
     38 H           5.7117    0.6138    0.0000 H       1  UNL1        0.0258
     39 H           6.1098    1.3950    0.0000 H       1  UNL1        0.0258
     40 H           6.2911    3.0700    0.0000 H       1  UNL1        0.2102
     41 H           2.3311   -3.1056    0.0000 H       1  UNL1        0.0274
     42 H           2.9511   -3.7256    0.0000 H       1  UNL1        0.0274
     43 H           3.5711   -3.1056    0.0000 H       1  UNL1        0.0274
@<TRIPOS>BOND
     1     1     3    1
     2     1     6    1
     3     2    10    1
     4     2    40    1
     5     3     4    1
     6     3     5    1
     7     3    11    1
     8     4     8    1
     9     4     9    1
    10     4    18    1
    11     5     7    1
    12     5    19    1
    13     5    20    1
    14     6     7    1
    15     6    10    1
    16     6    21    1
    17     7    22    1
    18     7    23    1
    19     8    12    1
    20     8    24    1
    21     8    25    1
    22     9    13    1
    23     9    26    1
    24     9    27    1
    25    10    15    1
    26    10    16    1
    27    11    28    1
    28    11    29    1
    29    11    30    1
    30    12    14    1
    31    12    31    1
    32    12    32    1
    33    13    14    2
    34    13    33    1
    35    14    17    1
    36    15    34    1
    37    15    35    1
    38    15    36    1
    39    16    37    1
    40    16    38    1
    41    16    39    1
    42    17    41    1
    43    17    42    1
    44    17    43    1
