@<TRIPOS>MOLECULE
IMPHY005686
 82 88 0 0 0
SMALL
GASTEIGER

@<TRIPOS>ATOM
      1 O           3.4030    2.0000    0.0000 O.3     1  UNL1       -0.4519
      2 O           6.8671   -2.0000    0.0000 O.3     1  UNL1       -0.4519
      3 O           2.5369    4.5000    0.0000 O.3     1  UNL1       -0.4913
      4 O           7.7331   -4.5000    0.0000 O.3     1  UNL1       -0.4913
      5 O           2.5369    2.5000    0.0000 O.3     1  UNL1       -0.5009
      6 O           7.7331   -2.5000    0.0000 O.3     1  UNL1       -0.5009
      7 N           6.8671    3.0000    0.0000 N.3     1  UNL1       -0.2977
      8 N           3.4030   -3.0000    0.0000 N.3     1  UNL1       -0.2977
      9 C           6.0010    2.5000    0.0000 C.3     1  UNL1        0.0432
     10 C           4.2690   -2.5000    0.0000 C.3     1  UNL1        0.0432
     11 C           5.1350   -3.0000    0.0000 C.ar    1  UNL1        0.0193
     12 C           5.1350    3.0000    0.0000 C.ar    1  UNL1        0.0193
     13 C           3.4030   -4.0000    0.0000 C.3     1  UNL1        0.0032
     14 C           6.8671    4.0000    0.0000 C.3     1  UNL1        0.0032
     15 C           4.2690   -4.5000    0.0000 C.3     1  UNL1       -0.0143
     16 C           6.0010    4.5000    0.0000 C.3     1  UNL1       -0.0143
     17 C           5.1350    4.0000    0.0000 C.ar    1  UNL1       -0.0343
     18 C           5.1350   -4.0000    0.0000 C.ar    1  UNL1       -0.0343
     19 C           3.4030   -2.0000    0.0000 C.3     1  UNL1       -0.0078
     20 C           6.8671    2.0000    0.0000 C.3     1  UNL1       -0.0078
     21 C           4.2690    2.5000    0.0000 C.ar    1  UNL1        0.1782
     22 C           6.0010   -2.5000    0.0000 C.ar    1  UNL1        0.1782
     23 C           6.8671    1.0000    0.0000 C.ar    1  UNL1       -0.0453
     24 C           3.4030   -1.0000    0.0000 C.ar    1  UNL1       -0.0453
     25 C           2.5370   -2.5000    0.0000 C.3     1  UNL1       -0.0122
     26 C           7.7331    2.5000    0.0000 C.3     1  UNL1       -0.0122
     27 C           4.2690    4.5000    0.0000 C.ar    1  UNL1       -0.0125
     28 C           6.0010   -4.5000    0.0000 C.ar    1  UNL1       -0.0125
     29 C           3.4030    3.0000    0.0000 C.ar    1  UNL1        0.2020
     30 C           6.8671   -3.0000    0.0000 C.ar    1  UNL1        0.2020
     31 C           3.4030    4.0000    0.0000 C.ar    1  UNL1        0.1653
     32 C           6.8671   -4.0000    0.0000 C.ar    1  UNL1        0.1653
     33 C           6.0010    0.5000    0.0000 C.ar    1  UNL1       -0.0550
     34 C           2.5369   -0.5000    0.0000 C.ar    1  UNL1       -0.0550
     35 C           7.7331    0.5000    0.0000 C.ar    1  UNL1       -0.0550
     36 C           4.2690   -0.5000    0.0000 C.ar    1  UNL1       -0.0550
     37 C           6.8671   -1.0000    0.0000 C.ar    1  UNL1        0.1286
     38 C           3.4030    1.0000    0.0000 C.ar    1  UNL1        0.1286
     39 C           2.5369    0.5000    0.0000 C.ar    1  UNL1       -0.0191
     40 C           6.0010   -0.5000    0.0000 C.ar    1  UNL1       -0.0191
     41 C           4.2690    0.5000    0.0000 C.ar    1  UNL1       -0.0191
     42 C           7.7331   -0.5000    0.0000 C.ar    1  UNL1       -0.0191
     43 C           7.7331   -5.5000    0.0000 C.3     1  UNL1        0.0790
     44 C           2.5369    5.5000    0.0000 C.3     1  UNL1        0.0790
     45 H           5.5760    1.7639    0.0000 H       1  UNL1        0.0516
     46 H           4.6940   -1.7639    0.0000 H       1  UNL1        0.0516
     47 H           7.4776    3.8923    0.0000 H       1  UNL1        0.0430
     48 H           7.0791    4.5826    0.0000 H       1  UNL1        0.0430
     49 H           2.7924   -3.8923    0.0000 H       1  UNL1        0.0430
     50 H           3.1909   -4.5826    0.0000 H       1  UNL1        0.0430
     51 H           6.3996    4.9749    0.0000 H       1  UNL1        0.0326
     52 H           5.6025    4.9749    0.0000 H       1  UNL1        0.0326
     53 H           3.8705   -4.9750    0.0000 H       1  UNL1        0.0326
     54 H           4.6675   -4.9750    0.0000 H       1  UNL1        0.0326
     55 H           2.7924   -1.8923    0.0000 H       1  UNL1        0.0332
     56 H           3.1909   -2.5826    0.0000 H       1  UNL1        0.0332
     57 H           7.4776    1.8923    0.0000 H       1  UNL1        0.0332
     58 H           7.0791    2.5826    0.0000 H       1  UNL1        0.0332
     59 H           2.8470   -1.9631    0.0000 H       1  UNL1        0.0391
     60 H           2.0000   -2.1900    0.0000 H       1  UNL1        0.0391
     61 H           2.2270   -3.0369    0.0000 H       1  UNL1        0.0391
     62 H           7.4231    1.9631    0.0000 H       1  UNL1        0.0391
     63 H           8.2700    2.1900    0.0000 H       1  UNL1        0.0391
     64 H           8.0431    3.0369    0.0000 H       1  UNL1        0.0391
     65 H           4.2690    5.1200    0.0000 H       1  UNL1        0.0658
     66 H           6.0010   -5.1200    0.0000 H       1  UNL1        0.0658
     67 H           5.4641    0.8100    0.0000 H       1  UNL1        0.0621
     68 H           2.0000   -0.8100    0.0000 H       1  UNL1        0.0621
     69 H           8.2700    0.8100    0.0000 H       1  UNL1        0.0621
     70 H           4.8059   -0.8100    0.0000 H       1  UNL1        0.0621
     71 H           5.4641   -0.8100    0.0000 H       1  UNL1        0.0654
     72 H           2.0000    0.8100    0.0000 H       1  UNL1        0.0654
     73 H           8.2700   -0.8100    0.0000 H       1  UNL1        0.0654
     74 H           4.8059    0.8100    0.0000 H       1  UNL1        0.0654
     75 H           2.0000    2.8100    0.0000 H       1  UNL1        0.2924
     76 H           8.2700   -2.8100    0.0000 H       1  UNL1        0.2924
     77 H           3.1569    5.5000    0.0000 H       1  UNL1        0.0660
     78 H           2.5369    6.1200    0.0000 H       1  UNL1        0.0660
     79 H           7.1131   -5.5000    0.0000 H       1  UNL1        0.0660
     80 H           7.7331   -6.1200    0.0000 H       1  UNL1        0.0660
     81 H           8.3531   -5.5000    0.0000 H       1  UNL1        0.0660
     82 H           1.9169    5.5000    0.0000 H       1  UNL1        0.0660
@<TRIPOS>BOND
     1     1    21    1
     2     1    38    1
     3     2    22    1
     4     2    37    1
     5     3    31    1
     6     3    44    1
     7     4    32    1
     8     4    43    1
     9     5    29    1
    10     5    75    1
    11     6    30    1
    12     6    76    1
    13     7     9    1
    14     7    14    1
    15     7    26    1
    16     8    10    1
    17     8    13    1
    18     8    25    1
    19     9    12    1
    20     9    20    1
    21     9    45    1
    22    10    11    1
    23    10    19    1
    24    10    46    1
    25    11    18   ar
    26    11    22   ar
    27    12    17   ar
    28    12    21   ar
    29    13    15    1
    30    13    49    1
    31    13    50    1
    32    14    16    1
    33    14    47    1
    34    14    48    1
    35    15    18    1
    36    15    53    1
    37    15    54    1
    38    16    17    1
    39    16    51    1
    40    16    52    1
    41    17    27   ar
    42    18    28   ar
    43    19    24    1
    44    19    55    1
    45    19    56    1
    46    20    23    1
    47    20    57    1
    48    20    58    1
    49    21    29   ar
    50    22    30   ar
    51    23    33   ar
    52    23    35   ar
    53    24    34   ar
    54    24    36   ar
    55    25    59    1
    56    25    60    1
    57    25    61    1
    58    26    62    1
    59    26    63    1
    60    26    64    1
    61    27    31   ar
    62    27    65    1
    63    28    32   ar
    64    28    66    1
    65    29    31   ar
    66    30    32   ar
    67    33    40   ar
    68    33    67    1
    69    34    39   ar
    70    34    68    1
    71    35    42   ar
    72    35    69    1
    73    36    41   ar
    74    36    70    1
    75    37    40   ar
    76    37    42   ar
    77    38    39   ar
    78    38    41   ar
    79    39    72    1
    80    40    71    1
    81    41    74    1
    82    42    73    1
    83    43    79    1
    84    43    80    1
    85    43    81    1
    86    44    77    1
    87    44    78    1
    88    44    82    1
