@<TRIPOS>MOLECULE
IMPHY003457
 15 14 0 0 0
SMALL
GASTEIGER

@<TRIPOS>ATOM
      1 N           6.0010    0.0600    0.0000 N.3     1  UNL1       -0.3299
      2 N           2.5369    0.0600    0.0000 N.3     1  UNL1       -0.3299
      3 C           4.2690    0.0600    0.0000 C.3     1  UNL1       -0.0283
      4 C           5.1350    0.5600    0.0000 C.3     1  UNL1       -0.0058
      5 C           3.4030    0.5600    0.0000 C.3     1  UNL1       -0.0058
      6 H           3.8705   -0.4149    0.0000 H       1  UNL1        0.0290
      7 H           4.6675   -0.4149    0.0000 H       1  UNL1        0.0290
      8 H           5.5335    1.0350    0.0000 H       1  UNL1        0.0422
      9 H           4.7365    1.0350    0.0000 H       1  UNL1        0.0422
     10 H           3.8015    1.0350    0.0000 H       1  UNL1        0.0422
     11 H           3.0044    1.0350    0.0000 H       1  UNL1        0.0422
     12 H           6.5380    0.3700    0.0000 H       1  UNL1        0.1182
     13 H           6.0010   -0.5600    0.0000 H       1  UNL1        0.1182
     14 H           2.0000    0.3700    0.0000 H       1  UNL1        0.1182
     15 H           2.5369   -0.5600    0.0000 H       1  UNL1        0.1182
@<TRIPOS>BOND
     1     1     4    1
     2     1    12    1
     3     1    13    1
     4     2     5    1
     5     2    14    1
     6     2    15    1
     7     3     4    1
     8     3     5    1
     9     3     6    1
    10     3     7    1
    11     4     8    1
    12     4     9    1
    13     5    10    1
    14     5    11    1
