@<TRIPOS>MOLECULE
IMPHY007634
 60 63 0 0 0
SMALL
GASTEIGER

@<TRIPOS>ATOM
      1 O           5.9860    1.6992    0.0000 O.3     1  UNL1       -0.3383
      2 O           6.8680   -0.8423    0.0000 O.3     1  UNL1       -0.4524
      3 O           8.6382    0.1546    0.0000 O.3     1  UNL1       -0.3853
      4 O           6.8802    3.2270    0.0000 O.3     1  UNL1       -0.3434
      5 O           8.6540    2.2028    0.0000 O.3     1  UNL1       -0.3841
      6 O           4.8772   -0.8082    0.0000 O.3     1  UNL1       -0.4584
      7 O           5.8477   -2.5226    0.0000 O.2     1  UNL1       -0.2449
      8 O           5.8772   -0.8082    0.0000 O.2     1  UNL1       -0.2449
      9 O           6.3741   -5.1765    0.0000 O.3     1  UNL1       -0.5028
     10 O           5.3803   -5.1765    0.0000 O.3     1  UNL1       -0.5028
     11 O           9.4464   -3.4184    0.0000 O.3     1  UNL1       -0.5032
     12 O           8.4223   -5.1922    0.0000 O.3     1  UNL1       -0.5009
     13 O           3.3321   -5.1922    0.0000 O.3     1  UNL1       -0.5009
     14 O           2.3079   -3.4184    0.0000 O.3     1  UNL1       -0.5032
     15 N           4.2725    5.7170    0.0000 N.1     1  UNL1       -0.1911
     16 C           6.8680    0.1577    0.0000 C.3     1  UNL1        0.1609
     17 C           7.7780    0.6646    0.0000 C.3     1  UNL1        0.1251
     18 C           6.0020    0.6577    0.0000 C.3     1  UNL1        0.1350
     19 C           7.7861    1.7062    0.0000 C.3     1  UNL1        0.1352
     20 C           6.8840    2.2270    0.0000 C.3     1  UNL1        0.1884
     21 C           5.1360    0.1577    0.0000 C.3     1  UNL1        0.1225
     22 C           6.3772   -1.6742    0.0000 C.2     1  UNL1        0.3404
     23 C           6.0122    3.7236    0.0000 C.3     1  UNL1        0.0849
     24 C           6.8772   -2.5402    0.0000 C.ar    1  UNL1        0.0740
     25 C           6.3772   -3.4063    0.0000 C.ar    1  UNL1        0.0458
     26 C           5.3772   -1.6742    0.0000 C.2     1  UNL1        0.3401
     27 C           5.3772   -3.4063    0.0000 C.ar    1  UNL1        0.0458
     28 C           4.8772   -2.5402    0.0000 C.ar    1  UNL1        0.0740
     29 C           7.9187   -2.5242    0.0000 C.ar    1  UNL1       -0.0017
     30 C           6.8840   -4.3163    0.0000 C.ar    1  UNL1        0.1708
     31 C           6.0084    4.7236    0.0000 C.2     1  UNL1        0.0479
     32 C           4.8703   -4.3163    0.0000 C.ar    1  UNL1        0.1708
     33 C           3.8357   -2.5242    0.0000 C.ar    1  UNL1       -0.0017
     34 C           8.4464   -3.4222    0.0000 C.ar    1  UNL1        0.1628
     35 C           7.9256   -4.3243    0.0000 C.ar    1  UNL1        0.2012
     36 C           3.8287   -4.3243    0.0000 C.ar    1  UNL1        0.2012
     37 C           3.3079   -3.4222    0.0000 C.ar    1  UNL1        0.1628
     38 C           6.8724    5.2270    0.0000 C.2     1  UNL1       -0.0831
     39 C           5.1404    5.2203    0.0000 C.1     1  UNL1        0.0965
     40 H           7.6009   -0.2729    0.0000 H       1  UNL1        0.0789
     41 H           7.7697    0.0446    0.0000 H       1  UNL1        0.0659
     42 H           5.2626    1.0770    0.0000 H       1  UNL1        0.0669
     43 H           8.3212    1.3931    0.0000 H       1  UNL1        0.0671
     44 H           7.4203    2.5380    0.0000 H       1  UNL1        0.0938
     45 H           4.9755    0.7566    0.0000 H       1  UNL1        0.0725
     46 H           4.5160    0.1577    0.0000 H       1  UNL1        0.0725
     47 H           9.1787    0.4584    0.0000 H       1  UNL1        0.2101
     48 H           8.6564    2.8228    0.0000 H       1  UNL1        0.2101
     49 H           5.4012    3.8290    0.0000 H       1  UNL1        0.0618
     50 H           5.8024    3.1402    0.0000 H       1  UNL1        0.0618
     51 H           8.2225   -1.9837    0.0000 H       1  UNL1        0.0664
     52 H           3.5319   -1.9837    0.0000 H       1  UNL1        0.0664
     53 H           7.4106    4.9190    0.0000 H       1  UNL1        0.0545
     54 H           6.8700    5.8470    0.0000 H       1  UNL1        0.0545
     55 H           6.6778   -5.7170    0.0000 H       1  UNL1        0.2923
     56 H           5.0766   -5.7170    0.0000 H       1  UNL1        0.2923
     57 H           9.7544   -2.8803    0.0000 H       1  UNL1        0.2923
     58 H           9.0423   -5.1946    0.0000 H       1  UNL1        0.2924
     59 H           2.7121   -5.1946    0.0000 H       1  UNL1        0.2924
     60 H           2.0000   -2.8803    0.0000 H       1  UNL1        0.2923
@<TRIPOS>BOND
     1     1    18    1
     2     1    20    1
     3     2    16    1
     4     2    22    1
     5    17     3    1
     6     3    47    1
     7    20     4    1
     8     4    23    1
     9    19     5    1
    10     5    48    1
    11     6    21    1
    12     6    26    1
    13     7    22    2
    14     8    26    2
    15     9    30    1
    16     9    55    1
    17    10    32    1
    18    10    56    1
    19    11    34    1
    20    11    57    1
    21    12    35    1
    22    12    58    1
    23    13    36    1
    24    13    59    1
    25    14    37    1
    26    14    60    1
    27    15    39    3
    28    16    17    1
    29    16    18    1
    30    16    40    1
    31    17    19    1
    32    17    41    1
    33    18    21    1
    34    18    42    1
    35    19    20    1
    36    19    43    1
    37    20    44    1
    38    21    45    1
    39    21    46    1
    40    22    24    1
    41    23    31    1
    42    23    49    1
    43    23    50    1
    44    24    25   ar
    45    24    29   ar
    46    25    27    1
    47    25    30   ar
    48    26    28    1
    49    27    28   ar
    50    27    32   ar
    51    28    33   ar
    52    29    34   ar
    53    29    51    1
    54    30    35   ar
    55    31    38    2
    56    31    39    1
    57    32    36   ar
    58    33    37   ar
    59    33    52    1
    60    34    35   ar
    61    36    37   ar
    62    38    53    1
    63    38    54    1
