@<TRIPOS>MOLECULE
IMPHY001060
 46 48 0 0 0
SMALL
GASTEIGER

@<TRIPOS>ATOM
      1 O           8.3282   -2.0270    0.0000 O.3     1  UNL1       -0.4914
      2 O           6.4034   -2.7276    0.0000 O.3     1  UNL1       -0.4914
      3 O           3.0000   -1.4889    0.0000 O.3     1  UNL1       -0.4951
      4 N           6.4848    2.7907    0.0000 N.3     1  UNL1       -0.3154
      5 C           6.9245    0.2971    0.0000 C.ar    1  UNL1       -0.0348
      6 C           7.4245    1.1631    0.0000 C.3     1  UNL1       -0.0144
      7 C           5.9848   -0.0449    0.0000 C.ar    1  UNL1       -0.0106
      8 C           5.0451    0.2971    0.0000 C.ar    1  UNL1       -0.0108
      9 C           4.7187    2.1479    0.0000 C.3     1  UNL1       -0.0145
     10 C           4.5451    1.1631    0.0000 C.ar    1  UNL1       -0.0382
     11 C           7.2508    2.1479    0.0000 C.3     1  UNL1       -0.0001
     12 C           5.4848    2.7907    0.0000 C.3     1  UNL1       -0.0001
     13 C           7.7326   -0.3600    0.0000 C.ar    1  UNL1       -0.0125
     14 C           5.7881   -1.0678    0.0000 C.ar    1  UNL1       -0.0083
     15 C           4.5382   -0.6129    0.0000 C.ar    1  UNL1       -0.0120
     16 C           3.5036    1.1792    0.0000 C.ar    1  UNL1       -0.0545
     17 C           7.5597   -1.3872    0.0000 C.ar    1  UNL1        0.1618
     18 C           6.5809   -1.7435    0.0000 C.ar    1  UNL1        0.1621
     19 C           3.4966   -0.6209    0.0000 C.ar    1  UNL1        0.1207
     20 C           2.9758    0.2812    0.0000 C.ar    1  UNL1       -0.0197
     21 C           9.2666   -1.6814    0.0000 C.3     1  UNL1        0.0790
     22 C           7.1670   -3.3734    0.0000 C.3     1  UNL1        0.0790
     23 C           2.0000   -1.4927    0.0000 C.3     1  UNL1        0.0788
     24 H           7.8500    0.7122    0.0000 H       1  UNL1        0.0326
     25 H           7.9785    1.4414    0.0000 H       1  UNL1        0.0326
     26 H           4.4732    2.7172    0.0000 H       1  UNL1        0.0326
     27 H           4.1029    2.0760    0.0000 H       1  UNL1        0.0326
     28 H           7.8666    2.0760    0.0000 H       1  UNL1        0.0427
     29 H           7.4964    2.7172    0.0000 H       1  UNL1        0.0427
     30 H           5.6626    3.3847    0.0000 H       1  UNL1        0.0427
     31 H           4.9668    3.1314    0.0000 H       1  UNL1        0.0427
     32 H           6.6968    3.3734    0.0000 H       1  UNL1        0.1220
     33 H           8.3128   -0.1413    0.0000 H       1  UNL1        0.0658
     34 H           5.2031   -1.2731    0.0000 H       1  UNL1        0.0661
     35 H           4.8544   -1.1462    0.0000 H       1  UNL1        0.0660
     36 H           3.1998    1.7197    0.0000 H       1  UNL1        0.0622
     37 H           2.3558    0.2836    0.0000 H       1  UNL1        0.0654
     38 H           9.4809   -2.2632    0.0000 H       1  UNL1        0.0660
     39 H           9.8484   -1.4671    0.0000 H       1  UNL1        0.0660
     40 H           9.0523   -1.0996    0.0000 H       1  UNL1        0.0660
     41 H           6.7666   -3.8468    0.0000 H       1  UNL1        0.0660
     42 H           7.6404   -3.7737    0.0000 H       1  UNL1        0.0660
     43 H           7.5673   -2.8999    0.0000 H       1  UNL1        0.0660
     44 H           1.9976   -0.8727    0.0000 H       1  UNL1        0.0660
     45 H           1.3800   -1.4951    0.0000 H       1  UNL1        0.0660
     46 H           2.0024   -2.1127    0.0000 H       1  UNL1        0.0660
@<TRIPOS>BOND
     1     1    17    1
     2     1    21    1
     3     2    18    1
     4     2    22    1
     5     3    19    1
     6     3    23    1
     7     4    11    1
     8     4    12    1
     9     4    32    1
    10     5     6    1
    11     5     7   ar
    12     5    13   ar
    13     6    11    1
    14     6    24    1
    15     6    25    1
    16     7     8    1
    17     7    14   ar
    18     8    10   ar
    19     8    15   ar
    20     9    10    1
    21     9    12    1
    22     9    26    1
    23     9    27    1
    24    10    16   ar
    25    11    28    1
    26    11    29    1
    27    12    30    1
    28    12    31    1
    29    13    17   ar
    30    13    33    1
    31    14    18   ar
    32    14    34    1
    33    15    19   ar
    34    15    35    1
    35    16    20   ar
    36    16    36    1
    37    17    18   ar
    38    19    20   ar
    39    20    37    1
    40    21    38    1
    41    21    39    1
    42    21    40    1
    43    22    41    1
    44    22    42    1
    45    22    43    1
    46    23    44    1
    47    23    45    1
    48    23    46    1
