@<TRIPOS>MOLECULE
IMPHY001387
 62 65 0 0 0
SMALL
GASTEIGER

@<TRIPOS>ATOM
      1 O           6.0010   -1.0144    0.0000 O.3     1  UNL1       -0.3422
      2 O           4.2690   -1.0144    0.0000 O.3     1  UNL1       -0.3431
      3 O           6.0010   -3.0144    0.0000 O.3     1  UNL1       -0.3841
      4 O           4.2690   -4.0144    0.0000 O.3     1  UNL1       -0.3864
      5 O           2.5369   -3.0144    0.0000 O.3     1  UNL1       -0.3866
      6 C           5.4988    1.5178    0.0000 C.3     1  UNL1       -0.0174
      7 C           6.3092    0.9312    0.0000 C.3     1  UNL1       -0.0023
      8 C           6.4115    1.9264    0.0000 C.3     1  UNL1       -0.0258
      9 C           6.0010   -0.0144    0.0000 C.3     1  UNL1        0.0735
     10 C           4.6967    0.9298    0.0000 C.3     1  UNL1       -0.0439
     11 C           4.6886    2.1040    0.0000 C.3     1  UNL1       -0.0376
     12 C           6.5141    2.9211    0.0000 C.3     1  UNL1       -0.0350
     13 C           5.0065   -0.0152    0.0000 C.3     1  UNL1       -0.0231
     14 C           4.7912    3.0987    0.0000 C.3     1  UNL1       -0.0497
     15 C           5.7039    3.5073    0.0000 C.3     1  UNL1       -0.0494
     16 C           7.4268    3.3297    0.0000 C.3     1  UNL1       -0.0436
     17 C           6.9521   -0.3234    0.0000 C.3     1  UNL1       -0.0354
     18 C           3.7759    1.6955    0.0000 C.3     1  UNL1       -0.0619
     19 C           7.5294    4.3244    0.0000 C.3     1  UNL1       -0.0624
     20 C           8.2370    2.7435    0.0000 C.3     1  UNL1       -0.0624
     21 C           5.1350   -1.5144    0.0000 C.3     1  UNL1        0.1884
     22 C           5.1350   -2.5144    0.0000 C.3     1  UNL1        0.1341
     23 C           4.2690   -3.0144    0.0000 C.3     1  UNL1        0.1140
     24 C           3.4030   -1.5144    0.0000 C.3     1  UNL1        0.0873
     25 C           3.4030   -2.5144    0.0000 C.3     1  UNL1        0.1095
     26 C           2.5369   -1.0144    0.0000 C.3     1  UNL1       -0.0361
     27 H           7.1407    0.7550    0.0000 H       1  UNL1        0.0337
     28 H           7.2570    1.8393    0.0000 H       1  UNL1        0.0313
     29 H           4.3847    1.4656    0.0000 H       1  UNL1        0.0272
     30 H           4.1312    0.6758    0.0000 H       1  UNL1        0.0272
     31 H           4.1863    2.4674    0.0000 H       1  UNL1        0.0304
     32 H           6.5777    3.5378    0.0000 H       1  UNL1        0.0306
     33 H           4.4003   -0.1454    0.0000 H       1  UNL1        0.0293
     34 H           5.0722   -0.6318    0.0000 H       1  UNL1        0.0293
     35 H           4.6400    3.7000    0.0000 H       1  UNL1        0.0268
     36 H           4.1728    3.0543    0.0000 H       1  UNL1        0.0268
     37 H           6.1490    3.9389    0.0000 H       1  UNL1        0.0268
     38 H           5.3562    4.0206    0.0000 H       1  UNL1        0.0268
     39 H           7.3632    2.7129    0.0000 H       1  UNL1        0.0298
     40 H           6.7605   -0.9131    0.0000 H       1  UNL1        0.0257
     41 H           7.5418   -0.5150    0.0000 H       1  UNL1        0.0257
     42 H           7.1437    0.2662    0.0000 H       1  UNL1        0.0257
     43 H           3.5226    2.2614    0.0000 H       1  UNL1        0.0233
     44 H           3.2100    1.4422    0.0000 H       1  UNL1        0.0233
     45 H           4.0292    1.1296    0.0000 H       1  UNL1        0.0233
     46 H           8.1461    4.2608    0.0000 H       1  UNL1        0.0232
     47 H           7.5930    4.9411    0.0000 H       1  UNL1        0.0232
     48 H           6.9126    4.3880    0.0000 H       1  UNL1        0.0232
     49 H           7.8736    2.2412    0.0000 H       1  UNL1        0.0232
     50 H           8.7393    2.3801    0.0000 H       1  UNL1        0.0232
     51 H           8.6004    3.2458    0.0000 H       1  UNL1        0.0232
     52 H           5.1350   -0.8944    0.0000 H       1  UNL1        0.0938
     53 H           5.1350   -3.1344    0.0000 H       1  UNL1        0.0671
     54 H           3.7320   -3.3244    0.0000 H       1  UNL1        0.0648
     55 H           3.4030   -0.8944    0.0000 H       1  UNL1        0.0621
     56 H           2.8660   -2.2044    0.0000 H       1  UNL1        0.0646
     57 H           6.0010   -3.6344    0.0000 H       1  UNL1        0.2101
     58 H           2.8469   -0.4775    0.0000 H       1  UNL1        0.0255
     59 H           2.0000   -0.7044    0.0000 H       1  UNL1        0.0255
     60 H           2.2269   -1.5513    0.0000 H       1  UNL1        0.0255
     61 H           3.7320   -4.3244    0.0000 H       1  UNL1        0.2100
     62 H           2.0000   -2.7044    0.0000 H       1  UNL1        0.2100
@<TRIPOS>BOND
     1     9     1    1
     2    21     1    1
     3     2    21    1
     4     2    24    1
     5    22     3    1
     6     3    57    1
     7    23     4    1
     8     4    61    1
     9    25     5    1
    10     5    62    1
    11     6     7    1
    12     6     8    1
    13     6    10    1
    14     6    11    1
    15     7     8    1
    16     7     9    1
    17     7    27    1
    18     8    12    1
    19     8    28    1
    20     9    13    1
    21     9    17    1
    22    10    13    1
    23    10    29    1
    24    10    30    1
    25    11    14    1
    26    11    18    1
    27    11    31    1
    28    12    15    1
    29    12    16    1
    30    12    32    1
    31    13    33    1
    32    13    34    1
    33    14    15    1
    34    14    35    1
    35    14    36    1
    36    15    37    1
    37    15    38    1
    38    16    19    1
    39    16    20    1
    40    16    39    1
    41    17    40    1
    42    17    41    1
    43    17    42    1
    44    18    43    1
    45    18    44    1
    46    18    45    1
    47    19    46    1
    48    19    47    1
    49    19    48    1
    50    20    49    1
    51    20    50    1
    52    20    51    1
    53    21    22    1
    54    21    52    1
    55    22    23    1
    56    22    53    1
    57    23    25    1
    58    23    54    1
    59    24    25    1
    60    24    26    1
    61    24    55    1
    62    25    56    1
    63    26    58    1
    64    26    59    1
    65    26    60    1
