@<TRIPOS>MOLECULE
IMPHY017039
 19 18 0 0 0
SMALL
GASTEIGER

@<TRIPOS>ATOM
      1 O           6.3301    0.7500    0.0000 O.co2   1  UNL1       -0.5818
      2 O           5.4641   -0.7500    0.0000 O.2     1  UNL1        0.0344
      3 N           5.4641    0.2500    0.0000 N.pl3   1  UNL1        0.0382
      4 C           3.7320    0.2500    0.0000 C.3     1  UNL1        0.0209
      5 C           2.8660    0.7500    0.0000 C.3     1  UNL1       -0.0474
      6 C           4.5981    0.7500    0.0000 C.3     1  UNL1        0.2101
      7 C           3.7320   -0.7500    0.0000 C.3     1  UNL1       -0.0565
      8 C           2.0000    0.2500    0.0000 C.3     1  UNL1       -0.0648
      9 H           4.2690   -0.0600    0.0000 H       1  UNL1        0.0361
     10 H           3.2646    1.2250    0.0000 H       1  UNL1        0.0267
     11 H           2.4675    1.2250    0.0000 H       1  UNL1        0.0267
     12 H           4.9966    1.2250    0.0000 H       1  UNL1        0.1090
     13 H           4.1996    1.2250    0.0000 H       1  UNL1        0.1090
     14 H           3.1120   -0.7500    0.0000 H       1  UNL1        0.0234
     15 H           3.7320   -1.3700    0.0000 H       1  UNL1        0.0234
     16 H           4.3520   -0.7500    0.0000 H       1  UNL1        0.0234
     17 H           1.6900    0.7869    0.0000 H       1  UNL1        0.0230
     18 H           1.4631   -0.0600    0.0000 H       1  UNL1        0.0230
     19 H           2.3100   -0.2869    0.0000 H       1  UNL1        0.0230
@<TRIPOS>UNITY_ATOM_ATTR
1 1
charge -1
3 1
charge 1
@<TRIPOS>BOND
     1     1     3    1
     2     2     3    2
     3     3     6    1
     4     4     5    1
     5     4     6    1
     6     4     7    1
     7     4     9    1
     8     5     8    1
     9     5    10    1
    10     5    11    1
    11     6    12    1
    12     6    13    1
    13     7    14    1
    14     7    15    1
    15     7    16    1
    16     8    17    1
    17     8    18    1
    18     8    19    1
