@<TRIPOS>MOLECULE
IMPHY001755
 27 28 0 0 0
SMALL
GASTEIGER

@<TRIPOS>ATOM
      1 O           4.5691    0.9139    0.0000 O.3     1  UNL1       -0.4403
      2 O           4.8479    2.6739    0.0000 O.2     1  UNL1       -0.2262
      3 N           3.2601    1.8649    0.0000 N.am    1  UNL1       -0.2638
      4 C           2.9511    0.9139    0.0000 C.3     1  UNL1        0.0672
      5 C           3.7601    0.3261    0.0000 C.3     1  UNL1        0.1479
      6 C           3.7601   -0.6739    0.0000 C.ar    1  UNL1       -0.0054
      7 C           2.0000    0.6048    0.0000 C.3     1  UNL1       -0.0425
      8 C           4.2601    1.8649    0.0000 C.2     1  UNL1        0.4036
      9 C           2.6723    2.6739    0.0000 C.3     1  UNL1        0.0067
     10 C           2.8940   -1.1739    0.0000 C.ar    1  UNL1       -0.0550
     11 C           4.6261   -1.1739    0.0000 C.ar    1  UNL1       -0.0550
     12 C           2.8940   -2.1739    0.0000 C.ar    1  UNL1       -0.0614
     13 C           4.6261   -2.1739    0.0000 C.ar    1  UNL1       -0.0614
     14 C           3.7601   -2.6739    0.0000 C.ar    1  UNL1       -0.0617
     15 H           2.5126    1.3523    0.0000 H       1  UNL1        0.0539
     16 H           4.3125    0.0446    0.0000 H       1  UNL1        0.0805
     17 H           1.8084    1.1945    0.0000 H       1  UNL1        0.0249
     18 H           1.4103    0.4132    0.0000 H       1  UNL1        0.0249
     19 H           2.1916    0.0152    0.0000 H       1  UNL1        0.0249
     20 H           3.1739    3.0384    0.0000 H       1  UNL1        0.0430
     21 H           2.3079    3.1755    0.0000 H       1  UNL1        0.0430
     22 H           2.1707    2.3095    0.0000 H       1  UNL1        0.0430
     23 H           2.3571   -0.8639    0.0000 H       1  UNL1        0.0621
     24 H           5.1630   -0.8639    0.0000 H       1  UNL1        0.0621
     25 H           2.3571   -2.4839    0.0000 H       1  UNL1        0.0618
     26 H           5.1630   -2.4839    0.0000 H       1  UNL1        0.0618
     27 H           3.7601   -3.2939    0.0000 H       1  UNL1        0.0618
@<TRIPOS>BOND
     1     1     5    1
     2     1     8    1
     3     2     8    2
     4     3     4    1
     5     3     8   am
     6     3     9    1
     7     4     5    1
     8     4     7    1
     9     4    15    1
    10     5     6    1
    11     5    16    1
    12     6    10   ar
    13     6    11   ar
    14     7    17    1
    15     7    18    1
    16     7    19    1
    17     9    20    1
    18     9    21    1
    19     9    22    1
    20    10    12   ar
    21    10    23    1
    22    11    13   ar
    23    11    24    1
    24    12    14   ar
    25    12    25    1
    26    13    14   ar
    27    13    26    1
    28    14    27    1
