@<TRIPOS>MOLECULE
IMPHY003309
 30 32 0 0 0
SMALL
GASTEIGER

@<TRIPOS>ATOM
      1 O           6.6498    1.7493    0.0000 O.3     1  UNL1       -0.4930
      2 O           8.3780   -1.5062    0.0000 O.3     1  UNL1       -0.3904
      3 N           4.5274    1.1503    0.0000 N.ar    1  UNL1       -0.3513
      4 C           5.0274   -0.3886    0.0000 C.ar    1  UNL1        0.0113
      5 C           5.3364    0.5625    0.0000 C.ar    1  UNL1        0.0897
      6 C           4.0274   -0.3886    0.0000 C.ar    1  UNL1        0.0075
      7 C           3.7183    0.5625    0.0000 C.ar    1  UNL1        0.0476
      8 C           5.7123   -1.1733    0.0000 C.ar    1  UNL1       -0.0464
      9 C           6.3518    0.7947    0.0000 C.ar    1  UNL1        0.1442
     10 C           6.7328   -0.9646    0.0000 C.ar    1  UNL1       -0.0180
     11 C           7.0547    0.0261    0.0000 C.ar    1  UNL1       -0.0125
     12 C           3.3424   -1.1733    0.0000 C.ar    1  UNL1       -0.0520
     13 C           2.7029    0.7947    0.0000 C.ar    1  UNL1       -0.0378
     14 C           7.3991   -1.7103    0.0000 C.3     1  UNL1        0.0694
     15 C           2.3219   -0.9646    0.0000 C.ar    1  UNL1       -0.0611
     16 C           2.0000    0.0261    0.0000 C.ar    1  UNL1       -0.0598
     17 C           7.6255    1.9685    0.0000 C.3     1  UNL1        0.0789
     18 H           4.5274    1.7703    0.0000 H       1  UNL1        0.1660
     19 H           5.5139   -1.7607    0.0000 H       1  UNL1        0.0628
     20 H           7.6607    0.1573    0.0000 H       1  UNL1        0.0658
     21 H           3.5408   -1.7607    0.0000 H       1  UNL1        0.0624
     22 H           2.5182    1.3866    0.0000 H       1  UNL1        0.0638
     23 H           6.8720   -2.0368    0.0000 H       1  UNL1        0.0607
     24 H           7.6291   -2.2861    0.0000 H       1  UNL1        0.0607
     25 H           1.9088   -1.4269    0.0000 H       1  UNL1        0.0618
     26 H           1.3940    0.1573    0.0000 H       1  UNL1        0.0618
     27 H           7.7614    1.3636    0.0000 H       1  UNL1        0.0660
     28 H           8.2304    2.1044    0.0000 H       1  UNL1        0.0660
     29 H           7.4896    2.5734    0.0000 H       1  UNL1        0.0660
     30 H           8.7911   -1.9685    0.0000 H       1  UNL1        0.2098
@<TRIPOS>BOND
     1     1     9    1
     2     1    17    1
     3     2    14    1
     4     2    30    1
     5     3     5   ar
     6     3     7   ar
     7     3    18    1
     8     4     5   ar
     9     4     6   ar
    10     4     8   ar
    11     5     9   ar
    12     6     7   ar
    13     6    12   ar
    14     7    13   ar
    15     8    10   ar
    16     8    19    1
    17     9    11   ar
    18    10    11   ar
    19    10    14    1
    20    11    20    1
    21    12    15   ar
    22    12    21    1
    23    13    16   ar
    24    13    22    1
    25    14    23    1
    26    14    24    1
    27    15    16   ar
    28    15    25    1
    29    16    26    1
    30    17    27    1
    31    17    28    1
    32    17    29    1
