@<TRIPOS>MOLECULE
IMPHY013715
 143 151 0 0 0
SMALL
GASTEIGER

@<TRIPOS>ATOM
      1 O           8.6654    4.5666    0.0000 O.3     1  UNL1       -0.3476
      2 O           7.8214    6.1114    0.0000 O.3     1  UNL1       -0.3409
      3 O           5.0253    5.0759    0.0000 O.3     1  UNL1       -0.3419
      4 O           6.8671   -2.8259    0.0000 O.3     1  UNL1       -0.3449
      5 O           3.5187    5.9304    0.0000 O.3     1  UNL1       -0.3431
      6 O           5.1350   -2.8259    0.0000 O.3     1  UNL1       -0.3405
      7 O           6.0120    6.8156    0.0000 O.3     1  UNL1       -0.3841
      8 O           6.8671   -4.8258    0.0000 O.3     1  UNL1       -0.3378
      9 O           4.9986    8.5399    0.0000 O.3     1  UNL1       -0.3864
     10 O           2.9987    8.5245    0.0000 O.3     1  UNL1       -0.3866
     11 O           5.1350   -5.8258    0.0000 O.3     1  UNL1       -0.3864
     12 O           3.4030   -4.8258    0.0000 O.3     1  UNL1       -0.3865
     13 O           6.0010   -6.3258    0.0000 O.3     1  UNL1       -0.3431
     14 O           2.5369   -3.3259    0.0000 O.3     1  UNL1       -0.3924
     15 O           8.5991   -5.8258    0.0000 O.3     1  UNL1       -0.3841
     16 O           8.5991   -7.8258    0.0000 O.3     1  UNL1       -0.3864
     17 O           6.8671   -8.8259    0.0000 O.3     1  UNL1       -0.3866
     18 C           7.7936    3.0700    0.0000 C.3     1  UNL1        0.0081
     19 C           7.8056    2.0284    0.0000 C.3     1  UNL1       -0.0206
     20 C           6.9295    3.5733    0.0000 C.3     1  UNL1       -0.0222
     21 C           6.9056    1.5041    0.0000 C.3     1  UNL1       -0.0294
     22 C           6.9334    4.5733    0.0000 C.3     1  UNL1        0.0455
     23 C           7.8013    5.0700    0.0000 C.3     1  UNL1        0.1770
     24 C           7.4314    4.0714    0.0000 C.3     1  UNL1        0.0103
     25 C           6.8930    0.4192    0.0000 C.3     1  UNL1       -0.0252
     26 C           8.6615    3.5666    0.0000 C.3     1  UNL1        0.0575
     27 C           6.0176    3.0700    0.0000 C.3     1  UNL1       -0.0488
     28 C           8.7556    1.5041    0.0000 C.3     1  UNL1       -0.0465
     29 C           6.0055    2.0284    0.0000 C.3     1  UNL1       -0.0489
     30 C           7.8306   -0.1269    0.0000 C.3     1  UNL1       -0.0278
     31 C           6.0253    5.0836    0.0000 C.3     1  UNL1        0.0804
     32 C           8.7681    0.4192    0.0000 C.3     1  UNL1       -0.0486
     33 C           8.6697    2.5317    0.0000 C.3     1  UNL1       -0.0587
     34 C           7.8436   -1.2570    0.0000 C.3     1  UNL1       -0.0052
     35 C           5.9036   -0.1269    0.0000 C.3     1  UNL1       -0.0447
     36 C           6.0289    0.9225    0.0000 C.3     1  UNL1       -0.0590
     37 C           6.0213    6.1253    0.0000 C.3     1  UNL1        0.0066
     38 C           6.8671   -1.8259    0.0000 C.3     1  UNL1        0.0672
     39 C           5.8905   -1.2570    0.0000 C.3     1  UNL1       -0.0255
     40 C           6.9254    6.6426    0.0000 C.3     1  UNL1        0.0829
     41 C           5.5320    4.2138    0.0000 C.3     1  UNL1       -0.0352
     42 C           8.8436   -1.2493    0.0000 C.3     1  UNL1       -0.0572
     43 C           8.3503   -2.1192    0.0000 C.3     1  UNL1       -0.0572
     44 C           6.9331    7.6426    0.0000 C.2     1  UNL1       -0.0567
     45 C           4.5187    5.9381    0.0000 C.3     1  UNL1        0.1884
     46 C           6.0010   -3.3259    0.0000 C.3     1  UNL1        0.1886
     47 C           5.0120    6.8079    0.0000 C.3     1  UNL1        0.1341
     48 C           7.8029    8.1359    0.0000 C.2     1  UNL1       -0.0772
     49 C           6.0010   -4.3258    0.0000 C.3     1  UNL1        0.1406
     50 C           4.5053    7.6701    0.0000 C.3     1  UNL1        0.1140
     51 C           3.0120    6.7925    0.0000 C.3     1  UNL1        0.0873
     52 C           3.5054    7.6624    0.0000 C.3     1  UNL1        0.1095
     53 C           7.8106    9.1358    0.0000 C.3     1  UNL1       -0.0440
     54 C           8.6651    7.6292    0.0000 C.3     1  UNL1       -0.0440
     55 C           5.1350   -4.8258    0.0000 C.3     1  UNL1        0.1144
     56 C           4.2690   -3.3259    0.0000 C.3     1  UNL1        0.1130
     57 C           4.2690   -4.3258    0.0000 C.3     1  UNL1        0.1119
     58 C           2.0121    6.7848    0.0000 C.3     1  UNL1       -0.0361
     59 C           3.4030   -2.8259    0.0000 C.3     1  UNL1        0.0730
     60 C           6.8671   -5.8258    0.0000 C.3     1  UNL1        0.1884
     61 C           7.7331   -6.3258    0.0000 C.3     1  UNL1        0.1341
     62 C           7.7331   -7.3258    0.0000 C.3     1  UNL1        0.1140
     63 C           6.0010   -7.3258    0.0000 C.3     1  UNL1        0.0873
     64 C           6.8671   -7.8258    0.0000 C.3     1  UNL1        0.1095
     65 C           5.1350   -7.8258    0.0000 C.3     1  UNL1       -0.0361
     66 H           7.4676    3.8812    0.0000 H       1  UNL1        0.0312
     67 H           6.3663    1.1983    0.0000 H       1  UNL1        0.0312
     68 H           6.3976    4.2612    0.0000 H       1  UNL1        0.0384
     69 H           6.9358    4.4438    0.0000 H       1  UNL1        0.0323
     70 H           6.9329    3.7028    0.0000 H       1  UNL1        0.0323
     71 H           8.8713    2.9832    0.0000 H       1  UNL1        0.0567
     72 H           9.2725    3.6719    0.0000 H       1  UNL1        0.0567
     73 H           5.8153    3.6560    0.0000 H       1  UNL1        0.0268
     74 H           5.4055    2.9710    0.0000 H       1  UNL1        0.0268
     75 H           9.3676    1.4051    0.0000 H       1  UNL1        0.0271
     76 H           8.9578    2.0902    0.0000 H       1  UNL1        0.0271
     77 H           5.3959    2.1416    0.0000 H       1  UNL1        0.0268
     78 H           5.7897    1.4472    0.0000 H       1  UNL1        0.0268
     79 H           8.3699   -0.4328    0.0000 H       1  UNL1        0.0312
     80 H           8.9839   -0.1620    0.0000 H       1  UNL1        0.0268
     81 H           9.3777    0.5323    0.0000 H       1  UNL1        0.0268
     82 H           8.9818    1.9960    0.0000 H       1  UNL1        0.0235
     83 H           9.2055    2.8438    0.0000 H       1  UNL1        0.0235
     84 H           8.3577    3.0675    0.0000 H       1  UNL1        0.0235
     85 H           5.7013    0.4592    0.0000 H       1  UNL1        0.0271
     86 H           5.2915   -0.2259    0.0000 H       1  UNL1        0.0271
     87 H           6.3410    1.4583    0.0000 H       1  UNL1        0.0235
     88 H           5.4932    1.2346    0.0000 H       1  UNL1        0.0235
     89 H           5.7169    0.3868    0.0000 H       1  UNL1        0.0235
     90 H           5.8100    6.7082    0.0000 H       1  UNL1        0.0321
     91 H           5.4109    6.0168    0.0000 H       1  UNL1        0.0321
     92 H           7.4046   -2.1348    0.0000 H       1  UNL1        0.0602
     93 H           5.2809   -1.1439    0.0000 H       1  UNL1        0.0290
     94 H           5.6747   -1.8382    0.0000 H       1  UNL1        0.0290
     95 H           7.4653    6.9474    0.0000 H       1  UNL1        0.0642
     96 H           4.9927    4.5197    0.0000 H       1  UNL1        0.0257
     97 H           5.2261    3.6745    0.0000 H       1  UNL1        0.0257
     98 H           6.0713    3.9079    0.0000 H       1  UNL1        0.0257
     99 H           8.8484   -1.8693    0.0000 H       1  UNL1        0.0236
    100 H           9.4636   -1.2445    0.0000 H       1  UNL1        0.0236
    101 H           8.8388   -0.6293    0.0000 H       1  UNL1        0.0236
    102 H           7.8158   -2.4333    0.0000 H       1  UNL1        0.0236
    103 H           8.6644   -2.6537    0.0000 H       1  UNL1        0.0236
    104 H           8.8848   -1.8050    0.0000 H       1  UNL1        0.0236
    105 H           6.3986    7.9567    0.0000 H       1  UNL1        0.0597
    106 H           4.2128    5.3988    0.0000 H       1  UNL1        0.0938
    107 H           6.0010   -2.7059    0.0000 H       1  UNL1        0.0938
    108 H           5.3261    6.2734    0.0000 H       1  UNL1        0.0671
    109 H           6.0010   -4.9458    0.0000 H       1  UNL1        0.0675
    110 H           5.1253    7.6749    0.0000 H       1  UNL1        0.0648
    111 H           2.7062    6.2532    0.0000 H       1  UNL1        0.0621
    112 H           2.8854    7.6576    0.0000 H       1  UNL1        0.0646
    113 H           8.4306    9.1311    0.0000 H       1  UNL1        0.0274
    114 H           7.8154    9.7558    0.0000 H       1  UNL1        0.0274
    115 H           7.1907    9.1406    0.0000 H       1  UNL1        0.0274
    116 H           8.3510    7.0947    0.0000 H       1  UNL1        0.0274
    117 H           9.1996    7.3151    0.0000 H       1  UNL1        0.0274
    118 H           8.9792    8.1638    0.0000 H       1  UNL1        0.0274
    119 H           4.5981   -5.1358    0.0000 H       1  UNL1        0.0648
    120 H           6.3178    7.3550    0.0000 H       1  UNL1        0.2101
    121 H           4.2690   -2.7059    0.0000 H       1  UNL1        0.0647
    122 H           4.2690   -4.9458    0.0000 H       1  UNL1        0.0647
    123 H           2.0073    7.4048    0.0000 H       1  UNL1        0.0255
    124 H           1.3921    6.7800    0.0000 H       1  UNL1        0.0255
    125 H           2.0169    6.1648    0.0000 H       1  UNL1        0.0255
    126 H           4.6845    9.0745    0.0000 H       1  UNL1        0.2100
    127 H           2.3787    8.5197    0.0000 H       1  UNL1        0.2100
    128 H           3.8015   -2.3509    0.0000 H       1  UNL1        0.0584
    129 H           3.0044   -2.3509    0.0000 H       1  UNL1        0.0584
    130 H           7.4040   -5.5158    0.0000 H       1  UNL1        0.0938
    131 H           4.5981   -6.1359    0.0000 H       1  UNL1        0.2100
    132 H           3.4030   -5.4459    0.0000 H       1  UNL1        0.2100
    133 H           8.2700   -6.6358    0.0000 H       1  UNL1        0.0671
    134 H           2.0000   -3.0158    0.0000 H       1  UNL1        0.2095
    135 H           7.7331   -7.9458    0.0000 H       1  UNL1        0.0648
    136 H           5.4641   -7.0158    0.0000 H       1  UNL1        0.0621
    137 H           7.4040   -8.1358    0.0000 H       1  UNL1        0.0646
    138 H           9.1360   -6.1359    0.0000 H       1  UNL1        0.2101
    139 H           4.8250   -7.2889    0.0000 H       1  UNL1        0.0255
    140 H           4.5981   -8.1358    0.0000 H       1  UNL1        0.0255
    141 H           5.4450   -8.3628    0.0000 H       1  UNL1        0.0255
    142 H           8.5991   -8.4459    0.0000 H       1  UNL1        0.2100
    143 H           7.4040   -9.1358    0.0000 H       1  UNL1        0.2100
@<TRIPOS>BOND
     1     1    23    1
     2     1    26    1
     3     2    23    1
     4     2    40    1
     5     3    31    1
     6     3    45    1
     7     4    38    1
     8     4    46    1
     9     5    45    1
    10     5    51    1
    11     6    46    1
    12     6    56    1
    13     7    47    1
    14     7   120    1
    15     8    49    1
    16     8    60    1
    17     9    50    1
    18     9   126    1
    19    10    52    1
    20    10   127    1
    21    11    55    1
    22    11   131    1
    23    12    57    1
    24    12   132    1
    25    13    60    1
    26    13    63    1
    27    14    59    1
    28    14   134    1
    29    15    61    1
    30    15   138    1
    31    16    62    1
    32    16   142    1
    33    17    64    1
    34    17   143    1
    35    18    19    1
    36    18    20    1
    37    18    24    1
    38    18    26    1
    39    19    21    1
    40    19    28    1
    41    19    33    1
    42    20    22    1
    43    20    27    1
    44    20    66    1
    45    21    25    1
    46    21    29    1
    47    21    67    1
    48    22    23    1
    49    22    31    1
    50    22    68    1
    51    23    24    1
    52    24    69    1
    53    24    70    1
    54    25    30    1
    55    25    35    1
    56    25    36    1
    57    26    71    1
    58    26    72    1
    59    27    29    1
    60    27    73    1
    61    27    74    1
    62    28    32    1
    63    28    75    1
    64    28    76    1
    65    29    77    1
    66    29    78    1
    67    30    32    1
    68    30    34    1
    69    30    79    1
    70    31    37    1
    71    31    41    1
    72    32    80    1
    73    32    81    1
    74    33    82    1
    75    33    83    1
    76    33    84    1
    77    34    38    1
    78    34    42    1
    79    34    43    1
    80    35    39    1
    81    35    85    1
    82    35    86    1
    83    36    87    1
    84    36    88    1
    85    36    89    1
    86    37    40    1
    87    37    90    1
    88    37    91    1
    89    38    39    1
    90    38    92    1
    91    39    93    1
    92    39    94    1
    93    40    44    1
    94    40    95    1
    95    41    96    1
    96    41    97    1
    97    41    98    1
    98    42    99    1
    99    42   100    1
   100    42   101    1
   101    43   102    1
   102    43   103    1
   103    43   104    1
   104    44    48    2
   105    44   105    1
   106    45    47    1
   107    45   106    1
   108    46    49    1
   109    46   107    1
   110    47    50    1
   111    47   108    1
   112    48    53    1
   113    48    54    1
   114    49    55    1
   115    49   109    1
   116    50    52    1
   117    50   110    1
   118    51    52    1
   119    51    58    1
   120    51   111    1
   121    52   112    1
   122    53   113    1
   123    53   114    1
   124    53   115    1
   125    54   116    1
   126    54   117    1
   127    54   118    1
   128    55    57    1
   129    55   119    1
   130    56    57    1
   131    56    59    1
   132    56   121    1
   133    57   122    1
   134    58   123    1
   135    58   124    1
   136    58   125    1
   137    59   128    1
   138    59   129    1
   139    60    61    1
   140    60   130    1
   141    61    62    1
   142    61   133    1
   143    62    64    1
   144    62   135    1
   145    63    64    1
   146    63    65    1
   147    63   136    1
   148    64   137    1
   149    65   139    1
   150    65   140    1
   151    65   141    1
