@<TRIPOS>MOLECULE
IMPHY004502
 33 32 0 0 0
SMALL
GASTEIGER

@<TRIPOS>ATOM
      1 O           6.0010   -1.0000    0.0000 O.3     1  UNL1       -0.3825
      2 O           6.8671    1.5000    0.0000 O.2     1  UNL1       -0.2726
      3 O           2.5369   -0.0000    0.0000 O.3     1  UNL1       -0.4795
      4 OXT         3.4030    1.5000    0.0000 O.2     1  UNL1       -0.2493
      5 O          11.1972   -0.0000    0.0000 O.3     1  UNL1       -0.3904
      6 N           4.2690   -1.0000    0.0000 N.3     1  UNL1       -0.3183
      7 N           7.7331    0.0000    0.0000 N.am    1  UNL1       -0.2895
      8 C           5.1350    0.5000    0.0000 C.3     1  UNL1        0.0073
      9 C           6.0010    0.0000    0.0000 C.3     1  UNL1        0.1331
     10 CA          4.2690    0.0000    0.0000 C.3     1  UNL1        0.1061
     11 C           6.8671    0.5000    0.0000 C.2     1  UNL1        0.2455
     12 C           3.4030    0.5000    0.0000 C.2     1  UNL1        0.3218
     13 C           8.5991    0.5000    0.0000 C.2     1  UNL1        0.0017
     14 C           9.4651   -0.0000    0.0000 C.2     1  UNL1       -0.0089
     15 C          10.3312    0.5000    0.0000 C.3     1  UNL1        0.0704
     16 C           9.4651   -1.0000    0.0000 C.2     1  UNL1       -0.0623
     17 C          10.3312   -1.5000    0.0000 C.2     1  UNL1       -0.0983
     18 H           5.5335    0.9749    0.0000 H       1  UNL1        0.0315
     19 H           4.7365    0.9749    0.0000 H       1  UNL1        0.0315
     20 H           6.5380   -0.3100    0.0000 H       1  UNL1        0.0691
     21 HA          4.8059   -0.3100    0.0000 H       1  UNL1        0.0575
     22 H1          3.7320   -1.3100    0.0000 H       1  UNL1        0.1190
     23 H2          4.8059   -1.3100    0.0000 H       1  UNL1        0.1190
     24 H           7.7331   -0.6200    0.0000 H       1  UNL1        0.1543
     25 H           5.4641   -1.3100    0.0000 H       1  UNL1        0.2104
     26 H           8.5991    1.1200    0.0000 H       1  UNL1        0.0785
     27 H          10.7297    0.9749    0.0000 H       1  UNL1        0.0608
     28 H           9.9326    0.9749    0.0000 H       1  UNL1        0.0608
     29 H           2.0000    0.3100    0.0000 H       1  UNL1        0.2951
     30 H           8.9282   -1.3100    0.0000 H       1  UNL1        0.0616
     31 H          11.7341    0.3100    0.0000 H       1  UNL1        0.2098
     32 H          10.3312   -2.1200    0.0000 H       1  UNL1        0.0535
     33 H          10.8681   -1.1900    0.0000 H       1  UNL1        0.0535
@<TRIPOS>BOND
     1     1     9    1
     2     1    25    1
     3     2    11    2
     4     3    12    1
     5     3    29    1
     6     4    12    2
     7     5    15    1
     8     5    31    1
     9     6    10    1
    10     6    22    1
    11     6    23    1
    12     7    11   am
    13     7    13    1
    14     7    24    1
    15     8     9    1
    16     8    10    1
    17     8    18    1
    18     8    19    1
    19     9    11    1
    20     9    20    1
    21    10    12    1
    22    10    21    1
    23    13    14    2
    24    13    26    1
    25    14    15    1
    26    14    16    1
    27    15    27    1
    28    15    28    1
    29    16    17    2
    30    16    30    1
    31    17    32    1
    32    17    33    1
