@<TRIPOS>MOLECULE
IMPHY004815
 56 59 0 0 0
SMALL
GASTEIGER

@<TRIPOS>ATOM
      1 O           5.1350   -1.6796    0.0000 O.3     1  UNL1       -0.3313
      2 O           6.8671   -1.6796    0.0000 O.3     1  UNL1       -0.4606
      3 O           5.1350   -4.6796    0.0000 O.3     1  UNL1       -0.3864
      4 O           3.4030   -3.6796    0.0000 O.3     1  UNL1       -0.3865
      5 O           6.8671   -3.6796    0.0000 O.3     1  UNL1       -0.3829
      6 O           8.6230    1.3829    0.0000 O.3     1  UNL1       -0.4811
      7 O           7.7666    3.8863    0.0000 O.3     1  UNL1       -0.3875
      8 O           2.5369   -2.1796    0.0000 O.3     1  UNL1       -0.3924
      9 O           5.1208    1.3996    0.0000 O.3     1  UNL1       -0.5063
     10 O          12.0910    2.3696    0.0000 O.3     1  UNL1       -0.5033
     11 O          12.0987    4.3696    0.0000 O.3     1  UNL1       -0.5033
     12 C           5.1350   -3.6796    0.0000 C.3     1  UNL1        0.1152
     13 C           4.2690   -3.1796    0.0000 C.3     1  UNL1        0.1120
     14 C           6.0010   -3.1796    0.0000 C.3     1  UNL1        0.1454
     15 C           4.2690   -2.1796    0.0000 C.3     1  UNL1        0.1140
     16 C           6.0010   -2.1796    0.0000 C.3     1  UNL1        0.2308
     17 C           3.4030   -1.6796    0.0000 C.3     1  UNL1        0.0731
     18 C           7.7628    2.8863    0.0000 C.3     1  UNL1        0.1004
     19 C           8.6269    2.3829    0.0000 C.3     1  UNL1        0.1513
     20 C           6.8948    2.3896    0.0000 C.3     1  UNL1        0.0092
     21 C           6.8910    1.3896    0.0000 C.ar    1  UNL1        0.0384
     22 C           7.7551    0.8863    0.0000 C.ar    1  UNL1        0.1317
     23 C           6.8671   -0.6796    0.0000 C.ar    1  UNL1        0.1309
     24 C           7.7671   -0.1553    0.0000 C.ar    1  UNL1        0.0224
     25 C           9.4948    2.8796    0.0000 C.ar    1  UNL1       -0.0012
     26 C           5.9790    0.8863    0.0000 C.ar    1  UNL1        0.1270
     27 C           5.9670   -0.1553    0.0000 C.ar    1  UNL1        0.0222
     28 C          10.3589    2.3763    0.0000 C.ar    1  UNL1       -0.0098
     29 C           9.4987    3.8796    0.0000 C.ar    1  UNL1       -0.0513
     30 C          11.2269    2.8729    0.0000 C.ar    1  UNL1        0.1586
     31 C          10.3666    4.3762    0.0000 C.ar    1  UNL1       -0.0162
     32 C          11.2307    3.8729    0.0000 C.ar    1  UNL1        0.1582
     33 H           5.6720   -3.9896    0.0000 H       1  UNL1        0.0648
     34 H           4.2690   -3.7996    0.0000 H       1  UNL1        0.0647
     35 H           6.5380   -2.8696    0.0000 H       1  UNL1        0.0683
     36 H           4.2690   -1.5596    0.0000 H       1  UNL1        0.0647
     37 H           6.0010   -1.5596    0.0000 H       1  UNL1        0.1084
     38 H           7.2270    3.1983    0.0000 H       1  UNL1        0.0637
     39 H           3.8015   -1.2046    0.0000 H       1  UNL1        0.0584
     40 H           3.0044   -1.2046    0.0000 H       1  UNL1        0.0584
     41 H           8.6293    3.0029    0.0000 H       1  UNL1        0.0811
     42 H           6.6850    2.9730    0.0000 H       1  UNL1        0.0342
     43 H           6.2838    2.2843    0.0000 H       1  UNL1        0.0342
     44 H           4.5981   -4.9896    0.0000 H       1  UNL1        0.2100
     45 H           3.4030   -4.2996    0.0000 H       1  UNL1        0.2100
     46 H           6.8671   -4.2996    0.0000 H       1  UNL1        0.2102
     47 H           8.3064   -0.4611    0.0000 H       1  UNL1        0.0691
     48 H           5.4277   -0.4611    0.0000 H       1  UNL1        0.0691
     49 H           7.2309    4.1983    0.0000 H       1  UNL1        0.2100
     50 H           2.0000   -1.8696    0.0000 H       1  UNL1        0.2095
     51 H          10.3565    1.7563    0.0000 H       1  UNL1        0.0659
     52 H           8.9630    4.1916    0.0000 H       1  UNL1        0.0623
     53 H           4.5792    1.0979    0.0000 H       1  UNL1        0.2921
     54 H          10.3690    4.9962    0.0000 H       1  UNL1        0.0655
     55 H          12.6291    2.6775    0.0000 H       1  UNL1        0.2923
     56 H          12.1011    4.9896    0.0000 H       1  UNL1        0.2923
@<TRIPOS>BOND
     1     1    15    1
     2     1    16    1
     3    16     2    1
     4     2    23    1
     5    12     3    1
     6     3    44    1
     7    13     4    1
     8     4    45    1
     9     5    14    1
    10     5    46    1
    11     6    19    1
    12     6    22    1
    13    18     7    1
    14     7    49    1
    15     8    17    1
    16     8    50    1
    17     9    26    1
    18     9    53    1
    19    10    30    1
    20    10    55    1
    21    11    32    1
    22    11    56    1
    23    12    13    1
    24    12    14    1
    25    12    33    1
    26    13    15    1
    27    13    34    1
    28    14    16    1
    29    14    35    1
    30    15    17    1
    31    15    36    1
    32    16    37    1
    33    17    39    1
    34    17    40    1
    35    18    19    1
    36    18    20    1
    37    18    38    1
    38    19    25    1
    39    19    41    1
    40    20    21    1
    41    20    42    1
    42    20    43    1
    43    21    22   ar
    44    21    26   ar
    45    22    24   ar
    46    23    24   ar
    47    23    27   ar
    48    24    47    1
    49    25    28   ar
    50    25    29   ar
    51    26    27   ar
    52    27    48    1
    53    28    30   ar
    54    28    51    1
    55    29    31   ar
    56    29    52    1
    57    30    32   ar
    58    31    32   ar
    59    31    54    1
