@<TRIPOS>MOLECULE
IMPHY006502
 169 177 0 0 0
SMALL
GASTEIGER

@<TRIPOS>ATOM
      1 O          11.1602    3.9961    0.0000 O.3     1  UNL1       -0.3754
      2 O           9.4651   -0.1941    0.0000 O.3     1  UNL1       -0.3448
      3 O           7.0210    0.4975    0.0000 O.3     1  UNL1       -0.3944
      4 O           7.7113    9.0853    0.0000 O.3     1  UNL1       -0.3944
      5 O           7.7331   -0.1941    0.0000 O.3     1  UNL1       -0.3431
      6 O           9.4651   -2.1941    0.0000 O.3     1  UNL1       -0.3377
      7 O           7.7331   -3.1941    0.0000 O.3     1  UNL1       -0.3400
      8 O           6.0010   -2.1941    0.0000 O.3     1  UNL1       -0.3866
      9 O          10.3312   -0.6941    0.0000 O.3     1  UNL1       -0.3405
     10 O           6.0010   -3.1941    0.0000 O.3     1  UNL1       -0.3405
     11 O          11.1972   -3.1941    0.0000 O.3     1  UNL1       -0.3841
     12 O           7.7331   -5.1941    0.0000 O.3     1  UNL1       -0.3841
     13 O          12.9292   -2.1941    0.0000 O.3     1  UNL1       -0.3864
     14 O          12.9292   -0.1941    0.0000 O.3     1  UNL1       -0.3865
     15 O           6.0010   -6.1941    0.0000 O.3     1  UNL1       -0.3864
     16 O           4.2690   -5.1941    0.0000 O.3     1  UNL1       -0.3401
     17 O          12.0632    1.3059    0.0000 O.3     1  UNL1       -0.3924
     18 O           3.4030   -3.6941    0.0000 O.3     1  UNL1       -0.3924
     19 O           5.1350   -6.6941    0.0000 O.3     1  UNL1       -0.3431
     20 O           2.5369   -6.1941    0.0000 O.3     1  UNL1       -0.3841
     21 O           2.5369   -8.1941    0.0000 O.3     1  UNL1       -0.3864
     22 O           4.2690   -9.1941    0.0000 O.3     1  UNL1       -0.3866
     23 C           8.5641    4.5061    0.0000 C.3     1  UNL1       -0.0170
     24 C           9.4282    4.0028    0.0000 C.3     1  UNL1        0.0007
     25 C           9.4402    2.9612    0.0000 C.3     1  UNL1       -0.0225
     26 C           8.5679    5.5061    0.0000 C.3     1  UNL1       -0.0050
     27 C           8.5402    2.4369    0.0000 C.3     1  UNL1       -0.0254
     28 C           7.6521    4.0028    0.0000 C.3     1  UNL1       -0.0462
     29 C           9.4359    6.0027    0.0000 C.2     1  UNL1       -0.0609
     30 C           8.5276    1.3520    0.0000 C.3     1  UNL1        0.0206
     31 C           7.6401    2.9612    0.0000 C.3     1  UNL1       -0.0485
     32 C           9.4560    7.0442    0.0000 C.3     1  UNL1       -0.0111
     33 C          10.2961    4.4994    0.0000 C.3     1  UNL1        0.0805
     34 C           8.5600    7.5754    0.0000 C.3     1  UNL1        0.0004
     35 C           7.6599    6.0164    0.0000 C.3     1  UNL1       -0.0428
     36 C          10.3901    2.4369    0.0000 C.3     1  UNL1       -0.0446
     37 C           7.6559    7.0580    0.0000 C.3     1  UNL1       -0.0439
     38 C           7.5800    4.6835    0.0000 C.3     1  UNL1       -0.0584
     39 C           9.4651    0.8059    0.0000 C.3     1  UNL1        0.0695
     40 C          10.3000    5.4994    0.0000 C.2     1  UNL1       -0.0553
     41 C          10.3043    3.4645    0.0000 C.3     1  UNL1       -0.0589
     42 C          10.4027    1.3520    0.0000 C.3     1  UNL1       -0.0254
     43 C           7.5825    5.3363    0.0000 C.3     1  UNL1       -0.0553
     44 C          10.4099    7.5611    0.0000 C.3     1  UNL1       -0.0407
     45 C           8.5558    8.6604    0.0000 C.3     1  UNL1       -0.0443
     46 C          10.4308    8.6459    0.0000 C.3     1  UNL1       -0.0343
     47 C           7.5276    1.3597    0.0000 C.3     1  UNL1        0.0522
     48 C           8.0209    0.4898    0.0000 C.3     1  UNL1       -0.0548
     49 C           9.4975    9.1992    0.0000 C.3     1  UNL1       -0.0473
     50 C           7.6998    8.0854    0.0000 C.3     1  UNL1        0.0504
     51 C          10.9441    9.5041    0.0000 C.3     1  UNL1       -0.0598
     52 C          11.4307    8.6305    0.0000 C.3     1  UNL1       -0.0598
     53 C           8.5991   -0.6941    0.0000 C.3     1  UNL1        0.1885
     54 C          12.0282    4.4927    0.0000 C.3     1  UNL1        0.0372
     55 C           8.5991   -1.6941    0.0000 C.3     1  UNL1        0.1410
     56 C           7.7331   -2.1941    0.0000 C.3     1  UNL1        0.1209
     57 C           6.8671   -0.6941    0.0000 C.3     1  UNL1        0.0873
     58 C           6.8671   -1.6941    0.0000 C.3     1  UNL1        0.1099
     59 C           6.0010   -0.1941    0.0000 C.3     1  UNL1       -0.0361
     60 C          10.3312   -1.6941    0.0000 C.3     1  UNL1        0.1885
     61 C           6.8671   -3.6941    0.0000 C.3     1  UNL1        0.1884
     62 C          11.1972   -2.1941    0.0000 C.3     1  UNL1        0.1341
     63 C           6.8671   -4.6941    0.0000 C.3     1  UNL1        0.1341
     64 C          12.0632   -1.6941    0.0000 C.3     1  UNL1        0.1141
     65 C          11.1972   -0.1941    0.0000 C.3     1  UNL1        0.1130
     66 C          12.0632   -0.6941    0.0000 C.3     1  UNL1        0.1119
     67 C           6.0010   -5.1941    0.0000 C.3     1  UNL1        0.1144
     68 C           5.1350   -3.6941    0.0000 C.3     1  UNL1        0.1134
     69 C           5.1350   -4.6941    0.0000 C.3     1  UNL1        0.1184
     70 C          11.1972    0.8059    0.0000 C.3     1  UNL1        0.0730
     71 C           4.2690   -3.1941    0.0000 C.3     1  UNL1        0.0730
     72 C           4.2690   -6.1941    0.0000 C.3     1  UNL1        0.1883
     73 C           3.4030   -6.6941    0.0000 C.3     1  UNL1        0.1341
     74 C           3.4030   -7.6941    0.0000 C.3     1  UNL1        0.1140
     75 C           5.1350   -7.6941    0.0000 C.3     1  UNL1        0.0873
     76 C           4.2690   -8.1941    0.0000 C.3     1  UNL1        0.1095
     77 C           6.0010   -8.1941    0.0000 C.3     1  UNL1       -0.0361
     78 H          10.1659    3.5806    0.0000 H       1  UNL1        0.0340
     79 H           7.8008    2.0176    0.0000 H       1  UNL1        0.0313
     80 H           7.4498    4.5888    0.0000 H       1  UNL1        0.0271
     81 H           7.0401    3.9037    0.0000 H       1  UNL1        0.0271
     82 H           7.0305    3.0743    0.0000 H       1  UNL1        0.0268
     83 H           7.4243    2.3800    0.0000 H       1  UNL1        0.0268
     84 H          10.1820    6.6023    0.0000 H       1  UNL1        0.0352
     85 H          10.8342    4.8073    0.0000 H       1  UNL1        0.0643
     86 H           7.0486    6.1202    0.0000 H       1  UNL1        0.0274
     87 H           7.4531    5.4319    0.0000 H       1  UNL1        0.0274
     88 H          11.0022    2.3379    0.0000 H       1  UNL1        0.0272
     89 H          10.5924    3.0230    0.0000 H       1  UNL1        0.0272
     90 H           7.4446    7.6409    0.0000 H       1  UNL1        0.0272
     91 H           7.0454    6.9496    0.0000 H       1  UNL1        0.0272
     92 H           7.6900    5.2937    0.0000 H       1  UNL1        0.0235
     93 H           6.9698    4.7936    0.0000 H       1  UNL1        0.0235
     94 H           7.4699    4.0734    0.0000 H       1  UNL1        0.0235
     95 H          10.0027    0.4969    0.0000 H       1  UNL1        0.0603
     96 H          10.8381    5.8073    0.0000 H       1  UNL1        0.0597
     97 H          10.6164    2.9288    0.0000 H       1  UNL1        0.0235
     98 H          10.8400    3.7766    0.0000 H       1  UNL1        0.0235
     99 H           9.9922    4.0003    0.0000 H       1  UNL1        0.0235
    100 H          10.6185    0.7707    0.0000 H       1  UNL1        0.0290
    101 H          11.0123    1.4651    0.0000 H       1  UNL1        0.0290
    102 H           7.4772    5.9473    0.0000 H       1  UNL1        0.0238
    103 H           6.9715    5.2310    0.0000 H       1  UNL1        0.0238
    104 H           7.6877    4.7253    0.0000 H       1  UNL1        0.0238
    105 H          10.6076    6.9735    0.0000 H       1  UNL1        0.0276
    106 H          11.0227    7.6554    0.0000 H       1  UNL1        0.0276
    107 H           8.3445    9.2433    0.0000 H       1  UNL1        0.0272
    108 H           7.9453    8.5519    0.0000 H       1  UNL1        0.0272
    109 H           7.6400    1.9694    0.0000 H       1  UNL1        0.0563
    110 H           6.9467    1.5762    0.0000 H       1  UNL1        0.0563
    111 H           7.4864    0.8040    0.0000 H       1  UNL1        0.0237
    112 H           7.7068   -0.0447    0.0000 H       1  UNL1        0.0237
    113 H           8.5555    0.1757    0.0000 H       1  UNL1        0.0237
    114 H           9.9003    9.6706    0.0000 H       1  UNL1        0.0271
    115 H           9.1020    9.6767    0.0000 H       1  UNL1        0.0271
    116 H           7.0905    8.2001    0.0000 H       1  UNL1        0.0563
    117 H           7.4810    7.5052    0.0000 H       1  UNL1        0.0563
    118 H          11.4762    9.1859    0.0000 H       1  UNL1        0.0235
    119 H          11.2623   10.0362    0.0000 H       1  UNL1        0.0235
    120 H          10.4120    9.8224    0.0000 H       1  UNL1        0.0235
    121 H          11.4211    8.0106    0.0000 H       1  UNL1        0.0235
    122 H          12.0506    8.6209    0.0000 H       1  UNL1        0.0235
    123 H          11.4402    9.2504    0.0000 H       1  UNL1        0.0235
    124 H           8.5991   -0.0741    0.0000 H       1  UNL1        0.0938
    125 H           6.4010    0.5023    0.0000 H       1  UNL1        0.2094
    126 H          12.3361    3.9546    0.0000 H       1  UNL1        0.0524
    127 H          12.5663    4.8007    0.0000 H       1  UNL1        0.0524
    128 H          11.7202    5.0309    0.0000 H       1  UNL1        0.0524
    129 H           7.1780    9.4015    0.0000 H       1  UNL1        0.2094
    130 H           8.5991   -2.3141    0.0000 H       1  UNL1        0.0675
    131 H           7.1962   -2.5041    0.0000 H       1  UNL1        0.0651
    132 H           6.8671   -0.0741    0.0000 H       1  UNL1        0.0621
    133 H           6.3301   -1.3841    0.0000 H       1  UNL1        0.0646
    134 H           6.3110    0.3428    0.0000 H       1  UNL1        0.0255
    135 H           5.4641    0.1159    0.0000 H       1  UNL1        0.0255
    136 H           5.6910   -0.7311    0.0000 H       1  UNL1        0.0255
    137 H          10.3312   -2.3141    0.0000 H       1  UNL1        0.0938
    138 H           5.4641   -1.8841    0.0000 H       1  UNL1        0.2100
    139 H           7.4040   -4.0041    0.0000 H       1  UNL1        0.0938
    140 H          11.7341   -2.5041    0.0000 H       1  UNL1        0.0671
    141 H           6.8671   -5.3141    0.0000 H       1  UNL1        0.0671
    142 H          12.6002   -1.3841    0.0000 H       1  UNL1        0.0648
    143 H          10.6603    0.1159    0.0000 H       1  UNL1        0.0647
    144 H          12.0632   -0.0741    0.0000 H       1  UNL1        0.0647
    145 H           5.4641   -5.5041    0.0000 H       1  UNL1        0.0648
    146 H           5.1350   -3.0741    0.0000 H       1  UNL1        0.0647
    147 H           4.5981   -4.3841    0.0000 H       1  UNL1        0.0651
    148 H          10.6603   -3.5041    0.0000 H       1  UNL1        0.2101
    149 H          10.9851    1.3885    0.0000 H       1  UNL1        0.0584
    150 H          10.5866    0.6982    0.0000 H       1  UNL1        0.0584
    151 H           7.7331   -5.8141    0.0000 H       1  UNL1        0.2101
    152 H          13.4662   -1.8841    0.0000 H       1  UNL1        0.2100
    153 H           4.6675   -2.7192    0.0000 H       1  UNL1        0.0584
    154 H           3.8705   -2.7192    0.0000 H       1  UNL1        0.0584
    155 H          12.9292    0.4259    0.0000 H       1  UNL1        0.2100
    156 H           6.5380   -6.5041    0.0000 H       1  UNL1        0.2100
    157 H          12.0632    1.9259    0.0000 H       1  UNL1        0.2095
    158 H           3.7320   -5.8841    0.0000 H       1  UNL1        0.0938
    159 H           2.8660   -3.3841    0.0000 H       1  UNL1        0.2095
    160 H           3.9650   -6.0741    0.0000 H       1  UNL1        0.0671
    161 H           3.4030   -8.3141    0.0000 H       1  UNL1        0.0648
    162 H           5.6720   -7.3841    0.0000 H       1  UNL1        0.0621
    163 H           4.8059   -8.5041    0.0000 H       1  UNL1        0.0646
    164 H           2.0000   -6.5041    0.0000 H       1  UNL1        0.2101
    165 H           5.6910   -8.7311    0.0000 H       1  UNL1        0.0255
    166 H           6.5380   -8.5041    0.0000 H       1  UNL1        0.0255
    167 H           6.3110   -7.6572    0.0000 H       1  UNL1        0.0255
    168 H           2.5369   -8.8141    0.0000 H       1  UNL1        0.2100
    169 H           4.8059   -9.5041    0.0000 H       1  UNL1        0.2100
@<TRIPOS>BOND
     1    33     1    1
     2     1    54    1
     3    39     2    1
     4    53     2    1
     5     3    47    1
     6     3   125    1
     7     4    50    1
     8     4   129    1
     9     5    53    1
    10     5    57    1
    11    55     6    1
    12    60     6    1
    13    56     7    1
    14    61     7    1
    15    58     8    1
    16     8   138    1
    17     9    60    1
    18     9    65    1
    19    10    61    1
    20    10    68    1
    21    62    11    1
    22    11   148    1
    23    63    12    1
    24    12   151    1
    25    64    13    1
    26    13   152    1
    27    66    14    1
    28    14   155    1
    29    67    15    1
    30    15   156    1
    31    69    16    1
    32    72    16    1
    33    17    70    1
    34    17   157    1
    35    18    71    1
    36    18   159    1
    37    19    72    1
    38    19    75    1
    39    73    20    1
    40    20   164    1
    41    74    21    1
    42    21   168    1
    43    76    22    1
    44    22   169    1
    45    23    24    1
    46    23    26    1
    47    23    28    1
    48    23    38    1
    49    24    25    1
    50    24    33    1
    51    24    78    1
    52    25    27    1
    53    25    36    1
    54    25    41    1
    55    26    29    1
    56    26    35    1
    57    26    43    1
    58    27    30    1
    59    27    31    1
    60    27    79    1
    61    28    31    1
    62    28    80    1
    63    28    81    1
    64    29    32    1
    65    29    40    2
    66    30    39    1
    67    30    47    1
    68    30    48    1
    69    31    82    1
    70    31    83    1
    71    32    34    1
    72    32    44    1
    73    32    84    1
    74    33    40    1
    75    33    85    1
    76    34    37    1
    77    34    45    1
    78    34    50    1
    79    35    37    1
    80    35    86    1
    81    35    87    1
    82    36    42    1
    83    36    88    1
    84    36    89    1
    85    37    90    1
    86    37    91    1
    87    38    92    1
    88    38    93    1
    89    38    94    1
    90    39    42    1
    91    39    95    1
    92    40    96    1
    93    41    97    1
    94    41    98    1
    95    41    99    1
    96    42   100    1
    97    42   101    1
    98    43   102    1
    99    43   103    1
   100    43   104    1
   101    44    46    1
   102    44   105    1
   103    44   106    1
   104    45    49    1
   105    45   107    1
   106    45   108    1
   107    46    49    1
   108    46    51    1
   109    46    52    1
   110    47   109    1
   111    47   110    1
   112    48   111    1
   113    48   112    1
   114    48   113    1
   115    49   114    1
   116    49   115    1
   117    50   116    1
   118    50   117    1
   119    51   118    1
   120    51   119    1
   121    51   120    1
   122    52   121    1
   123    52   122    1
   124    52   123    1
   125    53    55    1
   126    53   124    1
   127    54   126    1
   128    54   127    1
   129    54   128    1
   130    55    56    1
   131    55   130    1
   132    56    58    1
   133    56   131    1
   134    57    58    1
   135    57    59    1
   136    57   132    1
   137    58   133    1
   138    59   134    1
   139    59   135    1
   140    59   136    1
   141    60    62    1
   142    60   137    1
   143    61    63    1
   144    61   139    1
   145    62    64    1
   146    62   140    1
   147    63    67    1
   148    63   141    1
   149    64    66    1
   150    64   142    1
   151    65    66    1
   152    65    70    1
   153    65   143    1
   154    66   144    1
   155    67    69    1
   156    67   145    1
   157    68    69    1
   158    68    71    1
   159    68   146    1
   160    69   147    1
   161    70   149    1
   162    70   150    1
   163    71   153    1
   164    71   154    1
   165    72    73    1
   166    72   158    1
   167    73    74    1
   168    73   160    1
   169    74    76    1
   170    74   161    1
   171    75    76    1
   172    75    77    1
   173    75   162    1
   174    76   163    1
   175    77   165    1
   176    77   166    1
   177    77   167    1
