@<TRIPOS>MOLECULE
IMPHY006777
 80 81 0 0 0
SMALL
GASTEIGER

@<TRIPOS>ATOM
      1 O           8.9282    3.7141    0.0000 O.3     1  UNL1       -0.4806
      2 O           4.5981   -3.7141    0.0000 O.3     1  UNL1       -0.4806
      3 O          10.4282    2.8481    0.0000 O.2     1  UNL1       -0.2510
      4 O           3.0981   -2.8481    0.0000 O.2     1  UNL1       -0.2510
      5 C           8.9282    0.2500    0.0000 C.3     1  UNL1       -0.0186
      6 C           8.0622   -0.2500    0.0000 C.3     1  UNL1       -0.0142
      7 C           4.5981   -0.2500    0.0000 C.3     1  UNL1       -0.0183
      8 C           5.4641    0.2500    0.0000 C.3     1  UNL1       -0.0142
      9 C           9.7942   -0.2500    0.0000 C.3     1  UNL1       -0.0142
     10 C           7.1962    0.2500    0.0000 C.3     1  UNL1       -0.0454
     11 C           6.3301   -0.2500    0.0000 C.3     1  UNL1       -0.0454
     12 C           3.7320    0.2500    0.0000 C.3     1  UNL1       -0.0110
     13 C           9.7942   -1.2500    0.0000 C.3     1  UNL1       -0.0423
     14 C           9.4282    1.1160    0.0000 C.3     1  UNL1       -0.0365
     15 C           8.0622   -1.2500    0.0000 C.2     1  UNL1       -0.0730
     16 C           8.9282   -1.7500    0.0000 C.3     1  UNL1       -0.0312
     17 C           4.0981   -1.1160    0.0000 C.3     1  UNL1       -0.0365
     18 C           8.4282    1.1160    0.0000 C.3     1  UNL1       -0.0585
     19 C           5.4641    1.2500    0.0000 C.2     1  UNL1       -0.0729
     20 C           3.7320    1.2500    0.0000 C.3     1  UNL1       -0.0275
     21 C           5.0981   -1.1160    0.0000 C.3     1  UNL1       -0.0585
     22 C          10.6603    0.2500    0.0000 C.2     1  UNL1       -0.0761
     23 C           4.5981    1.7500    0.0000 C.2     1  UNL1       -0.0842
     24 C           2.8660   -0.2500    0.0000 C.2     1  UNL1       -0.0758
     25 C           8.9282    1.9820    0.0000 C.3     1  UNL1        0.0453
     26 C           4.5981   -1.9820    0.0000 C.3     1  UNL1        0.0453
     27 C           6.3301    1.7500    0.0000 C.3     1  UNL1       -0.0435
     28 C           7.1962   -1.7500    0.0000 C.2     1  UNL1       -0.0992
     29 C          11.5263   -0.2500    0.0000 C.3     1  UNL1       -0.0438
     30 C           2.0000    0.2500    0.0000 C.3     1  UNL1       -0.0437
     31 C          10.6603    1.2500    0.0000 C.2     1  UNL1       -0.0994
     32 C           2.8660   -1.2500    0.0000 C.2     1  UNL1       -0.0994
     33 C           9.4282    2.8481    0.0000 C.2     1  UNL1        0.3047
     34 C           4.0981   -2.8481    0.0000 C.2     1  UNL1        0.3047
     35 H           8.0622    0.3700    0.0000 H       1  UNL1        0.0351
     36 H           5.4641   -0.3700    0.0000 H       1  UNL1        0.0351
     37 H           9.7942    0.3700    0.0000 H       1  UNL1        0.0351
     38 H           7.5947    0.7249    0.0000 H       1  UNL1        0.0271
     39 H           6.7976    0.7249    0.0000 H       1  UNL1        0.0271
     40 H           5.9316   -0.7249    0.0000 H       1  UNL1        0.0271
     41 H           6.7287   -0.7249    0.0000 H       1  UNL1        0.0271
     42 H           3.7320   -0.3700    0.0000 H       1  UNL1        0.0354
     43 H          10.0063   -1.8326    0.0000 H       1  UNL1        0.0274
     44 H          10.4048   -1.1423    0.0000 H       1  UNL1        0.0274
     45 H           9.9032    0.7175    0.0000 H       1  UNL1        0.0276
     46 H           9.9032    1.5146    0.0000 H       1  UNL1        0.0276
     47 H           8.5297   -2.2250    0.0000 H       1  UNL1        0.0310
     48 H           9.3267   -2.2250    0.0000 H       1  UNL1        0.0310
     49 H           3.6231   -0.7175    0.0000 H       1  UNL1        0.0276
     50 H           3.6231   -1.5146    0.0000 H       1  UNL1        0.0276
     51 H           8.9651    1.4260    0.0000 H       1  UNL1        0.0235
     52 H           8.1182    1.6530    0.0000 H       1  UNL1        0.0235
     53 H           7.8913    0.8060    0.0000 H       1  UNL1        0.0235
     54 H           3.5200    1.8326    0.0000 H       1  UNL1        0.0313
     55 H           3.1215    1.1423    0.0000 H       1  UNL1        0.0313
     56 H           4.5611   -1.4260    0.0000 H       1  UNL1        0.0235
     57 H           5.4081   -1.6530    0.0000 H       1  UNL1        0.0235
     58 H           5.6350   -0.8060    0.0000 H       1  UNL1        0.0235
     59 H           4.5981    2.3700    0.0000 H       1  UNL1        0.0572
     60 H           8.4533    2.3806    0.0000 H       1  UNL1        0.0378
     61 H           8.4533    1.5835    0.0000 H       1  UNL1        0.0378
     62 H           5.0730   -2.3806    0.0000 H       1  UNL1        0.0378
     63 H           5.0730   -1.5835    0.0000 H       1  UNL1        0.0378
     64 H           6.6401    1.2131    0.0000 H       1  UNL1        0.0274
     65 H           6.8671    2.0600    0.0000 H       1  UNL1        0.0274
     66 H           6.0201    2.2869    0.0000 H       1  UNL1        0.0274
     67 H           6.6592   -1.4400    0.0000 H       1  UNL1        0.0534
     68 H           7.1962   -2.3700    0.0000 H       1  UNL1        0.0534
     69 H          11.2163   -0.7869    0.0000 H       1  UNL1        0.0274
     70 H          12.0632   -0.5600    0.0000 H       1  UNL1        0.0274
     71 H          11.8363    0.2869    0.0000 H       1  UNL1        0.0274
     72 H           2.3100    0.7869    0.0000 H       1  UNL1        0.0274
     73 H           1.4631    0.5600    0.0000 H       1  UNL1        0.0274
     74 H           1.6900   -0.2869    0.0000 H       1  UNL1        0.0274
     75 H          11.1972    1.5600    0.0000 H       1  UNL1        0.0534
     76 H          10.1233    1.5600    0.0000 H       1  UNL1        0.0534
     77 H           2.3291   -1.5600    0.0000 H       1  UNL1        0.0534
     78 H           3.4030   -1.5600    0.0000 H       1  UNL1        0.0534
     79 H           9.2382    4.2510    0.0000 H       1  UNL1        0.2951
     80 H           4.2881   -4.2510    0.0000 H       1  UNL1        0.2951
@<TRIPOS>BOND
     1     1    33    1
     2     1    79    1
     3     2    34    1
     4     2    80    1
     5     3    33    2
     6     4    34    2
     7     5     6    1
     8     5     9    1
     9     5    14    1
    10     5    18    1
    11     6    10    1
    12     6    15    1
    13     6    35    1
    14     7     8    1
    15     7    12    1
    16     7    17    1
    17     7    21    1
    18     8    11    1
    19     8    19    1
    20     8    36    1
    21     9    13    1
    22     9    22    1
    23     9    37    1
    24    10    11    1
    25    10    38    1
    26    10    39    1
    27    11    40    1
    28    11    41    1
    29    12    20    1
    30    12    24    1
    31    12    42    1
    32    13    16    1
    33    13    43    1
    34    13    44    1
    35    14    25    1
    36    14    45    1
    37    14    46    1
    38    15    16    1
    39    15    28    2
    40    16    47    1
    41    16    48    1
    42    17    26    1
    43    17    49    1
    44    17    50    1
    45    18    51    1
    46    18    52    1
    47    18    53    1
    48    19    23    2
    49    19    27    1
    50    20    23    1
    51    20    54    1
    52    20    55    1
    53    21    56    1
    54    21    57    1
    55    21    58    1
    56    22    29    1
    57    22    31    2
    58    23    59    1
    59    24    30    1
    60    24    32    2
    61    25    33    1
    62    25    60    1
    63    25    61    1
    64    26    34    1
    65    26    62    1
    66    26    63    1
    67    27    64    1
    68    27    65    1
    69    27    66    1
    70    28    67    1
    71    28    68    1
    72    29    69    1
    73    29    70    1
    74    29    71    1
    75    30    72    1
    76    30    73    1
    77    30    74    1
    78    31    75    1
    79    31    76    1
    80    32    77    1
    81    32    78    1
