@<TRIPOS>MOLECULE
IMPHY009788
 14 13 0 0 0
SMALL
GASTEIGER

@<TRIPOS>ATOM
      1 O           5.4641   -1.2500    0.0000 O.2     1  UNL1       -0.2908
      2 O           2.0000   -0.2500    0.0000 O.co2   1  UNL1       -0.5498
      3 O           2.8660    1.2500    0.0000 O.co2   1  UNL1       -0.5498
      4 O           7.1962   -0.2500    0.0000 O.co2   1  UNL1       -0.5417
      5 O           6.3301    1.2500    0.0000 O.co2   1  UNL1       -0.5417
      6 C           4.5981    0.2500    0.0000 C.3     1  UNL1        0.0167
      7 C           3.7320   -0.2500    0.0000 C.3     1  UNL1       -0.0062
      8 C           5.4641   -0.2500    0.0000 C.2     1  UNL1        0.1786
      9 C           2.8660    0.2500    0.0000 C.2     1  UNL1        0.0422
     10 C           6.3301    0.2500    0.0000 C.2     1  UNL1        0.1070
     11 H           4.9966    0.7249    0.0000 H       1  UNL1        0.0349
     12 H           4.1996    0.7249    0.0000 H       1  UNL1        0.0349
     13 H           3.3335   -0.7249    0.0000 H       1  UNL1        0.0329
     14 H           4.1306   -0.7249    0.0000 H       1  UNL1        0.0329
@<TRIPOS>UNITY_ATOM_ATTR
2 1
charge -1
4 1
charge -1
@<TRIPOS>BOND
     1     1     8    2
     2     2     9   ar
     3     3     9   ar
     4     4    10   ar
     5     5    10   ar
     6     6     7    1
     7     6     8    1
     8     6    11    1
     9     6    12    1
    10     7     9    1
    11     7    13    1
    12     7    14    1
    13     8    10    1
