@<TRIPOS>MOLECULE
IMPHY013626
 67 68 0 0 0
SMALL
GASTEIGER

@<TRIPOS>ATOM
      1 O           5.4351   -1.1904    0.0000 O.3     1  UNL1       -0.4593
      2 O           8.9305   -0.9890    0.0000 O.3     1  UNL1       -0.4580
      3 O          10.4259   -0.8108    0.0000 O.3     1  UNL1       -0.3726
      4 O          12.1767    0.5802    0.0000 O.3     1  UNL1       -0.3856
      5 O          10.4845    2.0284    0.0000 O.3     1  UNL1       -0.4582
      6 O           3.7878   -1.7256    0.0000 O.2     1  UNL1       -0.2507
      7 O           8.5733    0.7058    0.0000 O.2     1  UNL1       -0.2473
      8 O           2.1916    0.3844    0.0000 O.3     1  UNL1       -0.3886
      9 O           8.9566    2.8442    0.0000 O.2     1  UNL1       -0.2512
     10 N           6.6951   -3.4505    0.0000 N.3     1  UNL1       -0.2886
     11 C           6.6951   -2.4505    0.0000 C.3     1  UNL1        0.0723
     12 C           5.7441   -2.1414    0.0000 C.3     1  UNL1        0.1235
     13 C           5.1563   -2.9505    0.0000 C.3     1  UNL1       -0.0010
     14 C           5.7441   -3.7595    0.0000 C.3     1  UNL1        0.0033
     15 C           7.6413   -2.1457    0.0000 C.2     1  UNL1       -0.0148
     16 C           7.6413   -3.7552    0.0000 C.3     1  UNL1        0.0182
     17 C           8.2250   -2.9505    0.0000 C.2     1  UNL1       -0.0660
     18 C           7.9520   -1.1952    0.0000 C.3     1  UNL1        0.1153
     19 C          10.2197    0.1677    0.0000 C.3     1  UNL1        0.2273
     20 C          11.1982    0.3740    0.0000 C.3     1  UNL1        0.1031
     21 C           4.4569   -0.9825    0.0000 C.2     1  UNL1        0.3101
     22 C           9.2412   -0.0385    0.0000 C.2     1  UNL1        0.3461
     23 C          10.0135    1.1462    0.0000 C.3     1  UNL1        0.1420
     24 C           4.1479   -0.0314    0.0000 C.3     1  UNL1        0.0732
     25 C           3.1697    0.1765    0.0000 C.3     1  UNL1        0.0706
     26 C          11.3391    1.3640    0.0000 C.3     1  UNL1       -0.0329
     27 C          11.4044   -0.6045    0.0000 C.3     1  UNL1       -0.0329
     28 C           9.0629    1.4569    0.0000 C.3     1  UNL1       -0.0243
     29 C           3.3776    1.1546    0.0000 C.3     1  UNL1       -0.0358
     30 C           2.9618   -0.8017    0.0000 C.3     1  UNL1       -0.0358
     31 C           9.9560    2.8774    0.0000 C.2     1  UNL1        0.3043
     32 C          10.4270    3.7595    0.0000 C.3     1  UNL1        0.0332
     33 H           6.6962   -1.6005    0.0000 H       1  UNL1        0.0547
     34 H           5.1317   -2.0445    0.0000 H       1  UNL1        0.0753
     35 H           4.6955   -2.5356    0.0000 H       1  UNL1        0.0314
     36 H           4.6955   -3.3653    0.0000 H       1  UNL1        0.0314
     37 H           5.2071   -4.0695    0.0000 H       1  UNL1        0.0428
     38 H           5.9962   -4.3259    0.0000 H       1  UNL1        0.0428
     39 H           7.3903   -4.3221    0.0000 H       1  UNL1        0.0470
     40 H           8.1787   -4.0644    0.0000 H       1  UNL1        0.0470
     41 H           8.8450   -2.9505    0.0000 H       1  UNL1        0.0586
     42 H           7.9314   -0.5756    0.0000 H       1  UNL1        0.0746
     43 H           7.3382   -1.1079    0.0000 H       1  UNL1        0.0746
     44 H          10.6273    1.0589    0.0000 H       1  UNL1        0.0767
     45 H           4.7618    0.0549    0.0000 H       1  UNL1        0.0406
     46 H           4.1695    0.5882    0.0000 H       1  UNL1        0.0406
     47 H          11.9529    1.2766    0.0000 H       1  UNL1        0.0258
     48 H          11.4264    1.9778    0.0000 H       1  UNL1        0.0258
     49 H          10.7253    1.4513    0.0000 H       1  UNL1        0.0258
     50 H          10.7977   -0.7324    0.0000 H       1  UNL1        0.0258
     51 H          11.5323   -1.2112    0.0000 H       1  UNL1        0.0258
     52 H          12.0111   -0.4767    0.0000 H       1  UNL1        0.0258
     53 H           9.2556    2.0462    0.0000 H       1  UNL1        0.0266
     54 H           8.4736    1.6495    0.0000 H       1  UNL1        0.0266
     55 H           8.8703    0.8676    0.0000 H       1  UNL1        0.0266
     56 H           9.9644   -1.2248    0.0000 H       1  UNL1        0.2111
     57 H          12.5908    0.1187    0.0000 H       1  UNL1        0.2103
     58 H           3.9841    1.0257    0.0000 H       1  UNL1        0.0257
     59 H           3.5066    1.7611    0.0000 H       1  UNL1        0.0257
     60 H           2.7712    1.2835    0.0000 H       1  UNL1        0.0257
     61 H           2.3554   -0.6728    0.0000 H       1  UNL1        0.0257
     62 H           2.8329   -1.4081    0.0000 H       1  UNL1        0.0257
     63 H           3.5683   -0.9306    0.0000 H       1  UNL1        0.0257
     64 H           2.0000    0.9741    0.0000 H       1  UNL1        0.2102
     65 H          10.9739    3.4675    0.0000 H       1  UNL1        0.0342
     66 H          10.7190    4.3064    0.0000 H       1  UNL1        0.0342
     67 H           9.8801    4.0515    0.0000 H       1  UNL1        0.0342
@<TRIPOS>BOND
     1    12     1    1
     2     1    21    1
     3     2    18    1
     4     2    22    1
     5    19     3    1
     6     3    56    1
     7     4    20    1
     8     4    57    1
     9    23     5    1
    10     5    31    1
    11     6    21    2
    12     7    22    2
    13     8    25    1
    14     8    64    1
    15     9    31    2
    16    10    11    1
    17    10    14    1
    18    10    16    1
    19    11    12    1
    20    11    15    1
    21    11    33    1
    22    12    13    1
    23    12    34    1
    24    13    14    1
    25    13    35    1
    26    13    36    1
    27    14    37    1
    28    14    38    1
    29    15    17    2
    30    15    18    1
    31    16    17    1
    32    16    39    1
    33    16    40    1
    34    17    41    1
    35    18    42    1
    36    18    43    1
    37    19    20    1
    38    19    22    1
    39    19    23    1
    40    20    26    1
    41    20    27    1
    42    21    24    1
    43    23    28    1
    44    23    44    1
    45    24    25    1
    46    24    45    1
    47    24    46    1
    48    25    29    1
    49    25    30    1
    50    26    47    1
    51    26    48    1
    52    26    49    1
    53    27    50    1
    54    27    51    1
    55    27    52    1
    56    28    53    1
    57    28    54    1
    58    28    55    1
    59    29    58    1
    60    29    59    1
    61    29    60    1
    62    30    61    1
    63    30    62    1
    64    30    63    1
    65    31    32    1
    66    32    65    1
    67    32    66    1
    68    32    67    1
