@<TRIPOS>MOLECULE
IMPHY000088
 34 34 0 0 0
SMALL
GASTEIGER

@<TRIPOS>ATOM
      1 O           4.2690    0.1550    0.0000 O.3     1  UNL1       -0.3405
      2 O           6.0010    0.1550    0.0000 O.3     1  UNL1       -0.3283
      3 O           4.2690   -2.8450    0.0000 O.3     1  UNL1       -0.3864
      4 O           2.5369   -1.8450    0.0000 O.3     1  UNL1       -0.3865
      5 O           6.0010   -1.8450    0.0000 O.3     1  UNL1       -0.3841
      6 O           2.5369    1.1550    0.0000 O.3     1  UNL1       -0.3924
      7 N           6.0010    3.1550    0.0000 N.1     1  UNL1       -0.1936
      8 C           4.2690   -1.8450    0.0000 C.3     1  UNL1        0.1141
      9 C           3.4030   -1.3450    0.0000 C.3     1  UNL1        0.1119
     10 C           5.1350   -1.3450    0.0000 C.3     1  UNL1        0.1342
     11 C           3.4030   -0.3450    0.0000 C.3     1  UNL1        0.1130
     12 C           5.1350   -0.3450    0.0000 C.3     1  UNL1        0.1898
     13 C           2.5369    0.1550    0.0000 C.3     1  UNL1        0.0730
     14 C           6.0010    1.1550    0.0000 C.3     1  UNL1        0.1521
     15 C           7.0010    1.1550    0.0000 C.3     1  UNL1       -0.0226
     16 C           5.0010    1.1550    0.0000 C.3     1  UNL1       -0.0226
     17 C           6.0010    2.1550    0.0000 C.1     1  UNL1        0.0971
     18 H           3.7320   -2.1550    0.0000 H       1  UNL1        0.0648
     19 H           3.4030   -1.9650    0.0000 H       1  UNL1        0.0647
     20 H           5.1350   -1.9650    0.0000 H       1  UNL1        0.0671
     21 H           3.4030    0.2750    0.0000 H       1  UNL1        0.0647
     22 H           5.1350    0.2750    0.0000 H       1  UNL1        0.0938
     23 H           1.9264    0.2627    0.0000 H       1  UNL1        0.0584
     24 H           2.3249   -0.4276    0.0000 H       1  UNL1        0.0584
     25 H           3.7320   -3.1550    0.0000 H       1  UNL1        0.2100
     26 H           2.0000   -1.5350    0.0000 H       1  UNL1        0.2100
     27 H           6.0010   -2.4650    0.0000 H       1  UNL1        0.2101
     28 H           7.0010    0.5350    0.0000 H       1  UNL1        0.0267
     29 H           7.6210    1.1550    0.0000 H       1  UNL1        0.0267
     30 H           7.0010    1.7750    0.0000 H       1  UNL1        0.0267
     31 H           5.0010    1.7750    0.0000 H       1  UNL1        0.0267
     32 H           4.3810    1.1550    0.0000 H       1  UNL1        0.0267
     33 H           5.0010    0.5350    0.0000 H       1  UNL1        0.0267
     34 H           2.0000    1.4650    0.0000 H       1  UNL1        0.2095
@<TRIPOS>BOND
     1     1    11    1
     2     1    12    1
     3    12     2    1
     4     2    14    1
     5     8     3    1
     6     3    25    1
     7     9     4    1
     8     4    26    1
     9    10     5    1
    10     5    27    1
    11     6    13    1
    12     6    34    1
    13     7    17    3
    14     8     9    1
    15     8    10    1
    16     8    18    1
    17     9    11    1
    18     9    19    1
    19    10    12    1
    20    10    20    1
    21    11    13    1
    22    11    21    1
    23    12    22    1
    24    13    23    1
    25    13    24    1
    26    14    15    1
    27    14    16    1
    28    14    17    1
    29    15    28    1
    30    15    29    1
    31    15    30    1
    32    16    31    1
    33    16    32    1
    34    16    33    1
