@<TRIPOS>MOLECULE
IMPHY003153
 54 58 0 0 0
SMALL
GASTEIGER

@<TRIPOS>ATOM
      1 O          11.0514   -0.5796    0.0000 O.2     1  UNL1       -0.4957
      2 O           8.8862   -2.8420    0.0000 O.3     1  UNL1       -0.4646
      3 O           7.6125   -1.6683    0.0000 O.2     1  UNL1       -0.2452
      4 O           2.9788    3.5774    0.0000 O.3     1  UNL1       -0.4951
      5 N           8.2919    1.8479    0.0000 N.3     1  UNL1       -0.2933
      6 N           5.8389    0.7304    0.0000 N.ar    1  UNL1       -0.3564
      7 C           9.6435    0.6589    0.0000 C.3     1  UNL1        0.0157
      8 C           8.9465   -0.1152    0.0000 C.3     1  UNL1        0.0029
      9 C           7.6228    1.1047    0.0000 C.3     1  UNL1        0.0515
     10 C           7.9294    0.1092    0.0000 C.3     1  UNL1       -0.0243
     11 C           9.3140    1.6470    0.0000 C.3     1  UNL1        0.0063
     12 C          10.7081    0.4497    0.0000 C.3     1  UNL1        0.1011
     13 C           6.6446    1.3126    0.0000 C.ar    1  UNL1        0.0376
     14 C           7.9829    2.7989    0.0000 C.3     1  UNL1        0.0036
     15 C           6.3356    2.2637    0.0000 C.ar    1  UNL1       -0.0163
     16 C           7.0048    3.0068    0.0000 C.3     1  UNL1       -0.0125
     17 C           9.2659   -1.1521    0.0000 C.2     1  UNL1        0.0742
     18 C           5.3416    2.2611    0.0000 C.ar    1  UNL1        0.0066
     19 C          11.3686    1.2005    0.0000 C.3     1  UNL1       -0.0275
     20 C          10.3254   -1.3859    0.0000 C.2     1  UNL1        0.0951
     21 C           5.0352    1.3154    0.0000 C.ar    1  UNL1        0.0472
     22 C           8.5882   -1.8875    0.0000 C.2     1  UNL1        0.3381
     23 C           4.6600    3.0406    0.0000 C.ar    1  UNL1       -0.0105
     24 C           4.0260    1.0837    0.0000 C.ar    1  UNL1       -0.0343
     25 C           3.6457    2.8323    0.0000 C.ar    1  UNL1        0.1208
     26 C           3.3266    1.8472    0.0000 C.ar    1  UNL1       -0.0180
     27 C           8.2085   -3.5774    0.0000 C.3     1  UNL1        0.0820
     28 C           2.0000    3.3724    0.0000 C.3     1  UNL1        0.0788
     29 H          10.2049    1.2971    0.0000 H       1  UNL1        0.0355
     30 H           8.3705   -0.7402    0.0000 H       1  UNL1        0.0357
     31 H           7.0492    0.4775    0.0000 H       1  UNL1        0.0527
     32 H           7.3143    0.0308    0.0000 H       1  UNL1        0.0290
     33 H           7.9014   -0.5101    0.0000 H       1  UNL1        0.0290
     34 H           9.9270    1.7396    0.0000 H       1  UNL1        0.0431
     35 H           9.3277    2.2669    0.0000 H       1  UNL1        0.0431
     36 H          11.3158    0.3266    0.0000 H       1  UNL1        0.0733
     37 H           8.5969    2.8852    0.0000 H       1  UNL1        0.0430
     38 H           8.0045    3.4186    0.0000 H       1  UNL1        0.0430
     39 H           7.2370    3.5817    0.0000 H       1  UNL1        0.0326
     40 H           6.4790    3.3354    0.0000 H       1  UNL1        0.0326
     41 H           5.8378    0.1104    0.0000 H       1  UNL1        0.1656
     42 H          11.8342    0.7910    0.0000 H       1  UNL1        0.0265
     43 H          11.7781    1.6660    0.0000 H       1  UNL1        0.0265
     44 H          10.9031    1.6100    0.0000 H       1  UNL1        0.0265
     45 H          10.5147   -1.9763    0.0000 H       1  UNL1        0.1028
     46 H           4.8578    3.6282    0.0000 H       1  UNL1        0.0661
     47 H           3.8417    0.4917    0.0000 H       1  UNL1        0.0639
     48 H           2.7207    1.7154    0.0000 H       1  UNL1        0.0655
     49 H           7.7526   -3.1572    0.0000 H       1  UNL1        0.0661
     50 H           7.7883   -4.0333    0.0000 H       1  UNL1        0.0661
     51 H           8.6644   -3.9976    0.0000 H       1  UNL1        0.0661
     52 H           1.8729    3.9792    0.0000 H       1  UNL1        0.0660
     53 H           1.3932    3.2453    0.0000 H       1  UNL1        0.0660
     54 H           2.1271    2.7656    0.0000 H       1  UNL1        0.0660
@<TRIPOS>BOND
     1     1    12    1
     2     1    20    1
     3     2    22    1
     4     2    27    1
     5     3    22    2
     6     4    25    1
     7     4    28    1
     8     5     9    1
     9     5    11    1
    10     5    14    1
    11     6    13   ar
    12     6    21   ar
    13     6    41    1
    14     7     8    1
    15     7    11    1
    16     7    12    1
    17     7    29    1
    18     8    10    1
    19     8    17    1
    20     8    30    1
    21     9    10    1
    22     9    13    1
    23     9    31    1
    24    10    32    1
    25    10    33    1
    26    11    34    1
    27    11    35    1
    28    12    19    1
    29    12    36    1
    30    13    15   ar
    31    14    16    1
    32    14    37    1
    33    14    38    1
    34    15    16    1
    35    15    18   ar
    36    16    39    1
    37    16    40    1
    38    17    20    2
    39    17    22    1
    40    18    21   ar
    41    18    23   ar
    42    19    42    1
    43    19    43    1
    44    19    44    1
    45    20    45    1
    46    21    24   ar
    47    23    25   ar
    48    23    46    1
    49    24    26   ar
    50    24    47    1
    51    25    26   ar
    52    26    48    1
    53    27    49    1
    54    27    50    1
    55    27    51    1
    56    28    52    1
    57    28    53    1
    58    28    54    1
