@<TRIPOS>MOLECULE
IMPHY010806
 89 95 0 0 0
SMALL
GASTEIGER

@<TRIPOS>ATOM
      1 O           7.1982    0.8568    0.0000 O.3     1  UNL1       -0.4482
      2 O          10.6636    2.8575    0.0000 O.3     1  UNL1       -0.4910
      3 O           7.7312    3.3003    0.0000 O.3     1  UNL1       -0.4884
      4 O           8.9311    3.8578    0.0000 O.3     1  UNL1       -0.4884
      5 O           6.6738    3.2972    0.0000 O.3     1  UNL1       -0.4914
      6 O           5.0588   -3.0478    0.0000 O.3     1  UNL1       -0.4524
      7 O           3.3259   -4.0478    0.0000 O.3     1  UNL1       -0.5033
      8 N           9.7975   -0.6439    0.0000 N.3     1  UNL1       -0.2977
      9 N           2.8660    1.3571    0.0000 N.3     1  UNL1       -0.2978
     10 C           8.9311   -0.1436    0.0000 C.3     1  UNL1        0.0433
     11 C           8.9311    0.8568    0.0000 C.ar    1  UNL1        0.0228
     12 C           3.7325    0.8568    0.0000 C.3     1  UNL1        0.0397
     13 C           9.7975    1.3571    0.0000 C.ar    1  UNL1        0.0075
     14 C          10.6640   -0.1436    0.0000 C.3     1  UNL1        0.0033
     15 C          10.6640    0.8568    0.0000 C.3     1  UNL1       -0.0108
     16 C           4.5989    1.3571    0.0000 C.ar    1  UNL1       -0.0231
     17 C           8.5245   -1.0468    0.0000 C.3     1  UNL1       -0.0078
     18 C           2.8660    2.3575    0.0000 C.3     1  UNL1        0.0032
     19 C           4.5989    2.3575    0.0000 C.ar    1  UNL1       -0.0378
     20 C           3.7325    2.8578    0.0000 C.3     1  UNL1       -0.0144
     21 C           8.0646    1.3571    0.0000 C.ar    1  UNL1        0.1788
     22 C           3.3259   -0.0464    0.0000 C.3     1  UNL1       -0.0078
     23 C           9.7975    2.3575    0.0000 C.ar    1  UNL1        0.1689
     24 C           5.4653    0.8568    0.0000 C.ar    1  UNL1       -0.0107
     25 C           9.7975   -1.6439    0.0000 C.3     1  UNL1       -0.0122
     26 C           6.3318    1.3571    0.0000 C.ar    1  UNL1        0.1703
     27 C           8.0646    2.3575    0.0000 C.ar    1  UNL1        0.2082
     28 C           7.6581   -1.5471    0.0000 C.ar    1  UNL1       -0.0453
     29 C           5.4653    2.8578    0.0000 C.ar    1  UNL1       -0.0128
     30 C           8.9311    2.8578    0.0000 C.ar    1  UNL1        0.2075
     31 C           2.0000    0.8571    0.0000 C.3     1  UNL1       -0.0122
     32 C           3.3259   -1.0468    0.0000 C.ar    1  UNL1       -0.0419
     33 C           6.3318    2.3575    0.0000 C.ar    1  UNL1        0.1624
     34 C           6.7917   -1.0468    0.0000 C.ar    1  UNL1       -0.0550
     35 C           7.6581   -2.5476    0.0000 C.ar    1  UNL1       -0.0550
     36 C           4.1924   -1.5471    0.0000 C.ar    1  UNL1       -0.0124
     37 C           2.4595   -1.5471    0.0000 C.ar    1  UNL1       -0.0548
     38 C           4.1924   -2.5476    0.0000 C.ar    1  UNL1        0.1698
     39 C           5.9252   -1.5471    0.0000 C.ar    1  UNL1       -0.0191
     40 C           6.7917   -3.0478    0.0000 C.ar    1  UNL1       -0.0191
     41 C           5.9252   -2.5476    0.0000 C.ar    1  UNL1        0.1286
     42 C           2.4595   -2.5476    0.0000 C.ar    1  UNL1       -0.0162
     43 C           3.3259   -3.0478    0.0000 C.ar    1  UNL1        0.1591
     44 C          10.6635    3.8576    0.0000 C.3     1  UNL1        0.0790
     45 C           7.9138    4.2835    0.0000 C.3     1  UNL1        0.0791
     46 C           9.7971    4.3578    0.0000 C.3     1  UNL1        0.0791
     47 C           6.0310    4.0633    0.0000 C.3     1  UNL1        0.0790
     48 H           8.1000    0.0348    0.0000 H       1  UNL1        0.0517
     49 H           2.9235    0.5958    0.0000 H       1  UNL1        0.0515
     50 H          10.8760   -0.7262    0.0000 H       1  UNL1        0.0430
     51 H          11.2745   -0.0360    0.0000 H       1  UNL1        0.0430
     52 H          11.2745    0.7492    0.0000 H       1  UNL1        0.0327
     53 H          10.8760    1.4394    0.0000 H       1  UNL1        0.0327
     54 H           8.6526   -1.6535    0.0000 H       1  UNL1        0.0332
     55 H           8.0646   -0.6310    0.0000 H       1  UNL1        0.0332
     56 H           2.6540    2.9402    0.0000 H       1  UNL1        0.0430
     57 H           2.2554    2.2499    0.0000 H       1  UNL1        0.0430
     58 H           4.1310    3.3327    0.0000 H       1  UNL1        0.0326
     59 H           3.3339    3.3327    0.0000 H       1  UNL1        0.0326
     60 H           2.8964    0.4008    0.0000 H       1  UNL1        0.0332
     61 H           3.9321   -0.1765    0.0000 H       1  UNL1        0.0332
     62 H           5.4653    0.2368    0.0000 H       1  UNL1        0.0659
     63 H           9.1775   -1.6439    0.0000 H       1  UNL1        0.0391
     64 H           9.7975   -2.2639    0.0000 H       1  UNL1        0.0391
     65 H          10.4175   -1.6439    0.0000 H       1  UNL1        0.0391
     66 H           5.4653    3.4778    0.0000 H       1  UNL1        0.0658
     67 H           1.6900    1.3940    0.0000 H       1  UNL1        0.0391
     68 H           1.4631    0.5471    0.0000 H       1  UNL1        0.0391
     69 H           2.3100    0.3201    0.0000 H       1  UNL1        0.0391
     70 H           6.7917   -0.4268    0.0000 H       1  UNL1        0.0621
     71 H           8.1950   -2.8576    0.0000 H       1  UNL1        0.0621
     72 H           4.7293   -1.2371    0.0000 H       1  UNL1        0.0658
     73 H           1.9225   -1.2371    0.0000 H       1  UNL1        0.0621
     74 H           5.3883   -1.2371    0.0000 H       1  UNL1        0.0654
     75 H           6.7917   -3.6678    0.0000 H       1  UNL1        0.0654
     76 H           1.9225   -2.8576    0.0000 H       1  UNL1        0.0655
     77 H          11.2835    3.8576    0.0000 H       1  UNL1        0.0660
     78 H          10.6635    4.4776    0.0000 H       1  UNL1        0.0660
     79 H          10.0435    3.8576    0.0000 H       1  UNL1        0.0660
     80 H           8.5234    4.1703    0.0000 H       1  UNL1        0.0660
     81 H           8.0270    4.8931    0.0000 H       1  UNL1        0.0660
     82 H           7.3042    4.3967    0.0000 H       1  UNL1        0.0660
     83 H          10.1071    3.8209    0.0000 H       1  UNL1        0.0660
     84 H          10.3340    4.6678    0.0000 H       1  UNL1        0.0660
     85 H           9.4871    4.8947    0.0000 H       1  UNL1        0.0660
     86 H           6.5060    4.4618    0.0000 H       1  UNL1        0.0660
     87 H           5.6325    4.5382    0.0000 H       1  UNL1        0.0660
     88 H           5.5561    3.6648    0.0000 H       1  UNL1        0.0660
     89 H           2.7890   -4.3578    0.0000 H       1  UNL1        0.2923
@<TRIPOS>BOND
     1     1    21    1
     2     1    26    1
     3     2    23    1
     4     2    44    1
     5     3    27    1
     6     3    45    1
     7     4    30    1
     8     4    46    1
     9     5    33    1
    10     5    47    1
    11     6    38    1
    12     6    41    1
    13     7    43    1
    14     7    89    1
    15     8    10    1
    16     8    14    1
    17     8    25    1
    18     9    12    1
    19     9    18    1
    20     9    31    1
    21    10    11    1
    22    10    17    1
    23    10    48    1
    24    11    13   ar
    25    11    21   ar
    26    12    16    1
    27    12    22    1
    28    12    49    1
    29    13    15    1
    30    13    23   ar
    31    14    15    1
    32    14    50    1
    33    14    51    1
    34    15    52    1
    35    15    53    1
    36    16    19   ar
    37    16    24   ar
    38    17    28    1
    39    17    54    1
    40    17    55    1
    41    18    20    1
    42    18    56    1
    43    18    57    1
    44    19    20    1
    45    19    29   ar
    46    20    58    1
    47    20    59    1
    48    21    27   ar
    49    22    32    1
    50    22    60    1
    51    22    61    1
    52    23    30   ar
    53    24    26   ar
    54    24    62    1
    55    25    63    1
    56    25    64    1
    57    25    65    1
    58    26    33   ar
    59    27    30   ar
    60    28    34   ar
    61    28    35   ar
    62    29    33   ar
    63    29    66    1
    64    31    67    1
    65    31    68    1
    66    31    69    1
    67    32    36   ar
    68    32    37   ar
    69    34    39   ar
    70    34    70    1
    71    35    40   ar
    72    35    71    1
    73    36    38   ar
    74    36    72    1
    75    37    42   ar
    76    37    73    1
    77    38    43   ar
    78    39    41   ar
    79    39    74    1
    80    40    41   ar
    81    40    75    1
    82    42    43   ar
    83    42    76    1
    84    44    77    1
    85    44    78    1
    86    44    79    1
    87    45    80    1
    88    45    81    1
    89    45    82    1
    90    46    83    1
    91    46    84    1
    92    46    85    1
    93    47    86    1
    94    47    87    1
    95    47    88    1
