@<TRIPOS>MOLECULE
IMPHY011499
 124 131 0 0 0
SMALL
GASTEIGER

@<TRIPOS>ATOM
      1 O          18.6473    1.2938    0.0000 O.3     1  UNL1       -0.3876
      2 O          17.7678   -2.2029    0.0000 O.3     1  UNL1       -0.3911
      3 O          13.2583    2.3669    0.0000 O.3     1  UNL1       -0.3480
      4 O          19.8882   -3.5844    0.0000 O.3     1  UNL1       -0.4571
      5 O          11.5263    2.3669    0.0000 O.3     1  UNL1       -0.3456
      6 O          21.6477   -3.8669    0.0000 O.2     1  UNL1       -0.2456
      7 O          11.5263   -0.6331    0.0000 O.3     1  UNL1       -0.3890
      8 O           9.7942    0.3669    0.0000 O.3     1  UNL1       -0.3429
      9 O           8.9282    1.8669    0.0000 O.3     1  UNL1       -0.3456
     10 O           6.3301    2.3669    0.0000 O.3     1  UNL1       -0.3429
     11 O           6.3301    0.3669    0.0000 O.3     1  UNL1       -0.3890
     12 O           5.4641    0.8669    0.0000 O.3     1  UNL1       -0.3456
     13 O           2.8660    2.3669    0.0000 O.3     1  UNL1       -0.4587
     14 O           2.8660    0.3669    0.0000 O.3     1  UNL1       -0.3856
     15 O           3.7320    3.8669    0.0000 O.2     1  UNL1       -0.2512
     16 C          18.6435    0.2938    0.0000 C.3     1  UNL1        0.0774
     17 C          17.7794    0.7971    0.0000 C.3     1  UNL1       -0.0081
     18 C          16.9114    0.3004    0.0000 C.3     1  UNL1       -0.0276
     19 C          18.6396   -0.7062    0.0000 C.3     1  UNL1        0.0295
     20 C          16.0034    0.8108    0.0000 C.3     1  UNL1       -0.0258
     21 C          15.9994    1.8524    0.0000 C.3     1  UNL1       -0.0330
     22 C          17.7717   -1.2029    0.0000 C.3     1  UNL1        0.0641
     23 C          16.9076   -0.6996    0.0000 C.3     1  UNL1       -0.0225
     24 C          19.5846   -1.0146    0.0000 C.3     1  UNL1       -0.0057
     25 C          19.5909    0.5948    0.0000 C.3     1  UNL1       -0.0226
     26 C          17.7994    1.8385    0.0000 C.3     1  UNL1       -0.0470
     27 C          16.9035    2.3697    0.0000 C.3     1  UNL1       -0.0493
     28 C          20.1714   -0.2121    0.0000 C.3     1  UNL1       -0.0431
     29 C          15.0744    0.2503    0.0000 C.3     1  UNL1       -0.0448
     30 C          18.6358   -1.7062    0.0000 C.3     1  UNL1       -0.0540
     31 C          15.0661    2.4057    0.0000 C.3     1  UNL1       -0.0232
     32 C          16.0072   -0.1892    0.0000 C.3     1  UNL1       -0.0590
     33 C          14.1285    0.7819    0.0000 C.3     1  UNL1       -0.0260
     34 C          14.1244    1.8669    0.0000 C.3     1  UNL1        0.0620
     35 C          19.8916   -1.9663    0.0000 C.2     1  UNL1       -0.0221
     36 C          19.3021   -2.7741    0.0000 C.3     1  UNL1        0.1147
     37 C          20.8420   -2.2774    0.0000 C.2     1  UNL1        0.0252
     38 C          20.8399   -3.2774    0.0000 C.2     1  UNL1        0.3323
     39 C          12.3923    1.8669    0.0000 C.3     1  UNL1        0.1624
     40 C          12.3923    0.8669    0.0000 C.3     1  UNL1        0.0270
     41 C          11.5263    0.3669    0.0000 C.3     1  UNL1        0.0884
     42 C          10.6603    1.8669    0.0000 C.3     1  UNL1        0.0875
     43 C          10.6603    0.8669    0.0000 C.3     1  UNL1        0.1134
     44 C           9.7942    2.3669    0.0000 C.3     1  UNL1       -0.0361
     45 C           8.9282    0.8669    0.0000 C.3     1  UNL1        0.1626
     46 C           8.0622    0.3669    0.0000 C.3     1  UNL1        0.0270
     47 C           7.1962    0.8669    0.0000 C.3     1  UNL1        0.0884
     48 C           8.0622    2.3669    0.0000 C.3     1  UNL1        0.0875
     49 C           7.1962    1.8669    0.0000 C.3     1  UNL1        0.1134
     50 C           8.0622    3.3669    0.0000 C.3     1  UNL1       -0.0361
     51 C           5.4641    1.8669    0.0000 C.3     1  UNL1        0.1636
     52 C           4.5981    2.3669    0.0000 C.3     1  UNL1        0.0381
     53 C           3.7320    1.8669    0.0000 C.3     1  UNL1        0.1358
     54 C           4.5981    0.3669    0.0000 C.3     1  UNL1        0.0882
     55 C           3.7320    0.8669    0.0000 C.3     1  UNL1        0.1180
     56 C           4.5981   -0.6331    0.0000 C.3     1  UNL1       -0.0360
     57 C           2.8660    3.3669    0.0000 C.2     1  UNL1        0.3043
     58 C           2.0000    3.8669    0.0000 C.3     1  UNL1        0.0332
     59 H          18.5204    1.2135    0.0000 H       1  UNL1        0.0331
     60 H          17.6459   -0.1274    0.0000 H       1  UNL1        0.0310
     61 H          16.0059    2.7024    0.0000 H       1  UNL1        0.0307
     62 H          17.2335   -1.5108    0.0000 H       1  UNL1        0.0600
     63 H          16.2974   -0.5895    0.0000 H       1  UNL1        0.0293
     64 H          16.6933   -1.2814    0.0000 H       1  UNL1        0.0293
     65 H          20.1968   -1.1132    0.0000 H       1  UNL1        0.0354
     66 H          20.1294    0.9020    0.0000 H       1  UNL1        0.0293
     67 H          19.3420    1.1627    0.0000 H       1  UNL1        0.0293
     68 H          18.4081    1.7207    0.0000 H       1  UNL1        0.0269
     69 H          18.0197    2.4181    0.0000 H       1  UNL1        0.0269
     70 H          17.3062    2.8411    0.0000 H       1  UNL1        0.0268
     71 H          16.5080    2.8472    0.0000 H       1  UNL1        0.0268
     72 H          20.6306   -0.6286    0.0000 H       1  UNL1        0.0272
     73 H          20.6338    0.2008    0.0000 H       1  UNL1        0.0272
     74 H          14.6826   -0.2303    0.0000 H       1  UNL1        0.0271
     75 H          15.4808   -0.2179    0.0000 H       1  UNL1        0.0271
     76 H          18.0158   -1.7038    0.0000 H       1  UNL1        0.0237
     77 H          18.6334   -2.3262    0.0000 H       1  UNL1        0.0237
     78 H          19.2558   -1.7086    0.0000 H       1  UNL1        0.0237
     79 H          15.4689    2.8771    0.0000 H       1  UNL1        0.0293
     80 H          14.6706    2.8832    0.0000 H       1  UNL1        0.0293
     81 H          15.3872   -0.1916    0.0000 H       1  UNL1        0.0235
     82 H          16.0096   -0.8092    0.0000 H       1  UNL1        0.0235
     83 H          16.6272   -0.1868    0.0000 H       1  UNL1        0.0235
     84 H          13.5173    0.8856    0.0000 H       1  UNL1        0.0290
     85 H          13.9217    0.1974    0.0000 H       1  UNL1        0.0290
     86 H          14.1256    2.4869    0.0000 H       1  UNL1        0.0597
     87 H          19.1854    1.6017    0.0000 H       1  UNL1        0.2102
     88 H          17.2297   -2.5108    0.0000 H       1  UNL1        0.2098
     89 H          18.8423   -2.3582    0.0000 H       1  UNL1        0.0746
     90 H          18.8405   -3.1880    0.0000 H       1  UNL1        0.0746
     91 H          21.3444   -1.9140    0.0000 H       1  UNL1        0.0689
     92 H          12.9292    1.5569    0.0000 H       1  UNL1        0.0910
     93 H          12.6044    0.2843    0.0000 H       1  UNL1        0.0340
     94 H          13.0029    0.9745    0.0000 H       1  UNL1        0.0340
     95 H          10.9893    0.0569    0.0000 H       1  UNL1        0.0622
     96 H          10.6603    2.4869    0.0000 H       1  UNL1        0.0621
     97 H          10.1233    1.1769    0.0000 H       1  UNL1        0.0649
     98 H          10.1042    2.9038    0.0000 H       1  UNL1        0.0255
     99 H           9.2573    2.6769    0.0000 H       1  UNL1        0.0255
    100 H           9.4842    1.8299    0.0000 H       1  UNL1        0.0255
    101 H          12.0632   -0.9431    0.0000 H       1  UNL1        0.2099
    102 H           8.9282    0.2469    0.0000 H       1  UNL1        0.0910
    103 H           7.6636   -0.1081    0.0000 H       1  UNL1        0.0340
    104 H           8.4607   -0.1081    0.0000 H       1  UNL1        0.0340
    105 H           6.6592    1.1769    0.0000 H       1  UNL1        0.0622
    106 H           8.5991    2.6769    0.0000 H       1  UNL1        0.0621
    107 H           7.1962    2.4869    0.0000 H       1  UNL1        0.0649
    108 H           8.6822    3.3669    0.0000 H       1  UNL1        0.0255
    109 H           8.0622    3.9869    0.0000 H       1  UNL1        0.0255
    110 H           7.4422    3.3669    0.0000 H       1  UNL1        0.0255
    111 H           6.3301   -0.2531    0.0000 H       1  UNL1        0.2099
    112 H           5.4641    2.4869    0.0000 H       1  UNL1        0.0911
    113 H           4.9966    2.8418    0.0000 H       1  UNL1        0.0351
    114 H           4.1996    2.8418    0.0000 H       1  UNL1        0.0351
    115 H           3.7320    2.4869    0.0000 H       1  UNL1        0.0762
    116 H           3.7320    0.2469    0.0000 H       1  UNL1        0.0656
    117 H           5.1350    0.0569    0.0000 H       1  UNL1        0.0621
    118 H           3.9781   -0.6331    0.0000 H       1  UNL1        0.0255
    119 H           4.5981   -1.2531    0.0000 H       1  UNL1        0.0255
    120 H           5.2181   -0.6331    0.0000 H       1  UNL1        0.0255
    121 H           2.3291    0.6769    0.0000 H       1  UNL1        0.2100
    122 H           2.3100    4.4038    0.0000 H       1  UNL1        0.0342
    123 H           1.4631    4.1769    0.0000 H       1  UNL1        0.0342
    124 H           1.6900    3.3299    0.0000 H       1  UNL1        0.0342
@<TRIPOS>BOND
     1    16     1    1
     2     1    87    1
     3    22     2    1
     4     2    88    1
     5    34     3    1
     6    39     3    1
     7     4    36    1
     8     4    38    1
     9     5    39    1
    10     5    42    1
    11     6    38    2
    12    41     7    1
    13     7   101    1
    14    43     8    1
    15    45     8    1
    16     9    45    1
    17     9    48    1
    18    49    10    1
    19    51    10    1
    20    47    11    1
    21    11   111    1
    22    12    51    1
    23    12    54    1
    24    53    13    1
    25    13    57    1
    26    55    14    1
    27    14   121    1
    28    15    57    2
    29    16    17    1
    30    16    19    1
    31    16    25    1
    32    17    18    1
    33    17    26    1
    34    17    59    1
    35    18    20    1
    36    18    23    1
    37    18    60    1
    38    19    22    1
    39    19    24    1
    40    19    30    1
    41    20    21    1
    42    20    29    1
    43    20    32    1
    44    21    27    1
    45    21    31    1
    46    21    61    1
    47    22    23    1
    48    22    62    1
    49    23    63    1
    50    23    64    1
    51    24    28    1
    52    24    35    1
    53    24    65    1
    54    25    28    1
    55    25    66    1
    56    25    67    1
    57    26    27    1
    58    26    68    1
    59    26    69    1
    60    27    70    1
    61    27    71    1
    62    28    72    1
    63    28    73    1
    64    29    33    1
    65    29    74    1
    66    29    75    1
    67    30    76    1
    68    30    77    1
    69    30    78    1
    70    31    34    1
    71    31    79    1
    72    31    80    1
    73    32    81    1
    74    32    82    1
    75    32    83    1
    76    33    34    1
    77    33    84    1
    78    33    85    1
    79    34    86    1
    80    35    36    1
    81    35    37    2
    82    36    89    1
    83    36    90    1
    84    37    38    1
    85    37    91    1
    86    39    40    1
    87    39    92    1
    88    40    41    1
    89    40    93    1
    90    40    94    1
    91    41    43    1
    92    41    95    1
    93    42    43    1
    94    42    44    1
    95    42    96    1
    96    43    97    1
    97    44    98    1
    98    44    99    1
    99    44   100    1
   100    45    46    1
   101    45   102    1
   102    46    47    1
   103    46   103    1
   104    46   104    1
   105    47    49    1
   106    47   105    1
   107    48    49    1
   108    48    50    1
   109    48   106    1
   110    49   107    1
   111    50   108    1
   112    50   109    1
   113    50   110    1
   114    51    52    1
   115    51   112    1
   116    52    53    1
   117    52   113    1
   118    52   114    1
   119    53    55    1
   120    53   115    1
   121    54    55    1
   122    54    56    1
   123    54   117    1
   124    55   116    1
   125    56   118    1
   126    56   119    1
   127    56   120    1
   128    57    58    1
   129    58   122    1
   130    58   123    1
   131    58   124    1
