@<TRIPOS>MOLECULE
IMPHY005977
 77 80 0 0 0
SMALL
GASTEIGER

@<TRIPOS>ATOM
      1 O           2.0000   -3.6598    0.0000 O.2     1  UNL1       -0.2974
      2 C           7.3931   -0.6074    0.0000 C.3     1  UNL1       -0.0259
      3 C           7.3931   -1.6074    0.0000 C.3     1  UNL1       -0.0323
      4 C           6.5271   -2.1074    0.0000 C.3     1  UNL1       -0.0344
      5 C           5.6610   -1.6074    0.0000 C.3     1  UNL1       -0.0322
      6 C           4.7510   -2.1143    0.0000 C.3     1  UNL1       -0.0254
      7 C           8.3393   -0.3027    0.0000 C.3     1  UNL1       -0.0328
      8 C           6.5271   -0.1074    0.0000 C.3     1  UNL1       -0.0468
      9 C           5.6610   -0.6074    0.0000 C.3     1  UNL1       -0.0489
     10 C           8.3393   -1.9122    0.0000 C.3     1  UNL1       -0.0492
     11 C           4.7430   -3.1559    0.0000 C.3     1  UNL1       -0.0287
     12 C           6.5431   -3.1489    0.0000 C.3     1  UNL1       -0.0494
     13 C           8.9229   -1.1074    0.0000 C.3     1  UNL1       -0.0492
     14 C           5.6451   -3.6767    0.0000 C.3     1  UNL1       -0.0491
     15 C           3.8242   -1.5502    0.0000 C.3     1  UNL1       -0.0404
     16 C           7.3931    0.3926    0.0000 C.3     1  UNL1       -0.0590
     17 C           8.6500    0.6478    0.0000 C.3     1  UNL1       -0.0405
     18 C           4.7587   -1.1143    0.0000 C.3     1  UNL1       -0.0590
     19 C           3.8076   -3.7056    0.0000 C.3     1  UNL1        0.0092
     20 C           2.8763   -2.0781    0.0000 C.3     1  UNL1        0.0063
     21 C           9.6285    0.8540    0.0000 C.3     1  UNL1       -0.0499
     22 C           2.8680   -3.1631    0.0000 C.2     1  UNL1        0.1337
     23 C           7.9821    1.3921    0.0000 C.3     1  UNL1       -0.0621
     24 C           9.9391    1.8046    0.0000 C.3     1  UNL1       -0.0500
     25 C          10.9176    2.0108    0.0000 C.3     1  UNL1       -0.0415
     26 C          11.2283    2.9613    0.0000 C.3     1  UNL1       -0.0441
     27 C          11.5855    1.2665    0.0000 C.3     1  UNL1       -0.0622
     28 C          12.2068    3.1675    0.0000 C.3     1  UNL1       -0.0624
     29 C          10.5605    3.7056    0.0000 C.3     1  UNL1       -0.0624
     30 H           7.4830   -2.4527    0.0000 H       1  UNL1        0.0309
     31 H           7.2664   -2.5267    0.0000 H       1  UNL1        0.0306
     32 H           6.3972   -1.1824    0.0000 H       1  UNL1        0.0309
     33 H           9.1790   -0.1708    0.0000 H       1  UNL1        0.0309
     34 H           6.9256    0.3675    0.0000 H       1  UNL1        0.0271
     35 H           6.1285    0.3675    0.0000 H       1  UNL1        0.0271
     36 H           5.4490   -0.0248    0.0000 H       1  UNL1        0.0268
     37 H           5.0504   -0.7151    0.0000 H       1  UNL1        0.0268
     38 H           8.0883   -2.4791    0.0000 H       1  UNL1        0.0268
     39 H           8.8767   -2.2214    0.0000 H       1  UNL1        0.0268
     40 H           4.7454   -3.7759    0.0000 H       1  UNL1        0.0310
     41 H           6.7612   -3.7293    0.0000 H       1  UNL1        0.0268
     42 H           7.1523   -3.0334    0.0000 H       1  UNL1        0.0268
     43 H           9.3838   -1.5222    0.0000 H       1  UNL1        0.0268
     44 H           9.3838   -0.6927    0.0000 H       1  UNL1        0.0268
     45 H           5.2478   -4.1527    0.0000 H       1  UNL1        0.0268
     46 H           6.0460   -4.1496    0.0000 H       1  UNL1        0.0268
     47 H           4.2324   -1.0835    0.0000 H       1  UNL1        0.0275
     48 H           3.4343   -1.0682    0.0000 H       1  UNL1        0.0275
     49 H           8.0131    0.3926    0.0000 H       1  UNL1        0.0235
     50 H           7.3931    1.0126    0.0000 H       1  UNL1        0.0235
     51 H           6.7731    0.3926    0.0000 H       1  UNL1        0.0235
     52 H           8.0433    0.5200    0.0000 H       1  UNL1        0.0301
     53 H           5.3787   -1.1191    0.0000 H       1  UNL1        0.0235
     54 H           4.7635   -0.4943    0.0000 H       1  UNL1        0.0235
     55 H           4.1388   -1.1095    0.0000 H       1  UNL1        0.0235
     56 H           3.4103   -4.1816    0.0000 H       1  UNL1        0.0344
     57 H           4.2085   -4.1785    0.0000 H       1  UNL1        0.0344
     58 H           2.6718   -1.4929    0.0000 H       1  UNL1        0.0342
     59 H           2.2647   -2.1795    0.0000 H       1  UNL1        0.0342
     60 H           9.6490    0.2344    0.0000 H       1  UNL1        0.0268
     61 H          10.2423    0.7667    0.0000 H       1  UNL1        0.0268
     62 H           8.4436    1.8062    0.0000 H       1  UNL1        0.0233
     63 H           7.5681    1.8536    0.0000 H       1  UNL1        0.0233
     64 H           7.5207    0.9781    0.0000 H       1  UNL1        0.0233
     65 H           9.9186    2.4242    0.0000 H       1  UNL1        0.0268
     66 H           9.3253    1.8919    0.0000 H       1  UNL1        0.0268
     67 H          10.7250    1.4215    0.0000 H       1  UNL1        0.0301
     68 H          11.4209    3.5506    0.0000 H       1  UNL1        0.0298
     69 H          11.1240    0.8524    0.0000 H       1  UNL1        0.0232
     70 H          11.9995    0.8050    0.0000 H       1  UNL1        0.0232
     71 H          12.0470    1.6805    0.0000 H       1  UNL1        0.0232
     72 H          12.3347    2.5608    0.0000 H       1  UNL1        0.0232
     73 H          12.8135    3.2954    0.0000 H       1  UNL1        0.0232
     74 H          12.0790    3.7742    0.0000 H       1  UNL1        0.0232
     75 H          11.0219    4.1197    0.0000 H       1  UNL1        0.0232
     76 H          10.1464    4.1671    0.0000 H       1  UNL1        0.0232
     77 H          10.0990    3.2915    0.0000 H       1  UNL1        0.0232
@<TRIPOS>BOND
     1     1    22    2
     2     2     3    1
     3     2     7    1
     4     2     8    1
     5     2    16    1
     6     3     4    1
     7     3    10    1
     8     3    30    1
     9     4     5    1
    10     4    12    1
    11     4    31    1
    12     5     6    1
    13     5     9    1
    14     5    32    1
    15     6    11    1
    16     6    15    1
    17     6    18    1
    18     7    13    1
    19     7    17    1
    20     7    33    1
    21     8     9    1
    22     8    34    1
    23     8    35    1
    24     9    36    1
    25     9    37    1
    26    10    13    1
    27    10    38    1
    28    10    39    1
    29    11    14    1
    30    11    19    1
    31    11    40    1
    32    12    14    1
    33    12    41    1
    34    12    42    1
    35    13    43    1
    36    13    44    1
    37    14    45    1
    38    14    46    1
    39    15    20    1
    40    15    47    1
    41    15    48    1
    42    16    49    1
    43    16    50    1
    44    16    51    1
    45    17    21    1
    46    17    23    1
    47    17    52    1
    48    18    53    1
    49    18    54    1
    50    18    55    1
    51    19    22    1
    52    19    56    1
    53    19    57    1
    54    20    22    1
    55    20    58    1
    56    20    59    1
    57    21    24    1
    58    21    60    1
    59    21    61    1
    60    23    62    1
    61    23    63    1
    62    23    64    1
    63    24    25    1
    64    24    65    1
    65    24    66    1
    66    25    26    1
    67    25    27    1
    68    25    67    1
    69    26    28    1
    70    26    29    1
    71    26    68    1
    72    27    69    1
    73    27    70    1
    74    27    71    1
    75    28    72    1
    76    28    73    1
    77    28    74    1
    78    29    75    1
    79    29    76    1
    80    29    77    1
