@<TRIPOS>MOLECULE
IMPHY016494
 71 70 0 0 0
SMALL
GASTEIGER

@<TRIPOS>ATOM
      1 C           8.9282    2.0000    0.0000 C.3     1  UNL1       -0.0410
      2 C           9.7942    2.5000    0.0000 C.3     1  UNL1       -0.0502
      3 C           8.0622    2.5000    0.0000 C.3     1  UNL1       -0.0502
      4 C           8.9282    1.0000    0.0000 C.3     1  UNL1       -0.0502
      5 C          10.6603    2.0000    0.0000 C.3     1  UNL1       -0.0528
      6 C           7.1962    2.0000    0.0000 C.3     1  UNL1       -0.0528
      7 C           8.0622    0.5000    0.0000 C.3     1  UNL1       -0.0528
      8 C          11.5263    2.5000    0.0000 C.3     1  UNL1       -0.0530
      9 C           6.3301    2.5000    0.0000 C.3     1  UNL1       -0.0530
     10 C           8.0622   -0.5000    0.0000 C.3     1  UNL1       -0.0531
     11 C          12.3923    2.0000    0.0000 C.3     1  UNL1       -0.0531
     12 C           5.4641    2.0000    0.0000 C.3     1  UNL1       -0.0531
     13 C           7.1962   -1.0000    0.0000 C.3     1  UNL1       -0.0533
     14 C          13.2583    2.5000    0.0000 C.3     1  UNL1       -0.0531
     15 C           4.5981    2.5000    0.0000 C.3     1  UNL1       -0.0531
     16 C          14.1244    2.0000    0.0000 C.3     1  UNL1       -0.0533
     17 C           3.7320    2.0000    0.0000 C.3     1  UNL1       -0.0533
     18 C           7.1962   -2.0000    0.0000 C.3     1  UNL1       -0.0559
     19 C          14.9904    2.5000    0.0000 C.3     1  UNL1       -0.0559
     20 C           2.8660    2.5000    0.0000 C.3     1  UNL1       -0.0559
     21 C           6.3301   -2.5000    0.0000 C.3     1  UNL1       -0.0653
     22 C          15.8564    2.0000    0.0000 C.3     1  UNL1       -0.0653
     23 C           2.0000    2.0000    0.0000 C.3     1  UNL1       -0.0653
     24 H           9.4651    1.6900    0.0000 H       1  UNL1        0.0301
     25 H          10.1928    2.9750    0.0000 H       1  UNL1        0.0268
     26 H           9.3957    2.9750    0.0000 H       1  UNL1        0.0268
     27 H           8.4607    2.9750    0.0000 H       1  UNL1        0.0268
     28 H           7.6636    2.9750    0.0000 H       1  UNL1        0.0268
     29 H           9.1403    0.4174    0.0000 H       1  UNL1        0.0268
     30 H           9.5388    1.1077    0.0000 H       1  UNL1        0.0268
     31 H          10.2617    1.5250    0.0000 H       1  UNL1        0.0265
     32 H          11.0588    1.5250    0.0000 H       1  UNL1        0.0265
     33 H           6.7976    1.5250    0.0000 H       1  UNL1        0.0265
     34 H           7.5947    1.5250    0.0000 H       1  UNL1        0.0265
     35 H           7.8501    1.0826    0.0000 H       1  UNL1        0.0265
     36 H           7.4516    0.3923    0.0000 H       1  UNL1        0.0265
     37 H          11.9248    2.9750    0.0000 H       1  UNL1        0.0265
     38 H          11.1278    2.9750    0.0000 H       1  UNL1        0.0265
     39 H           6.7287    2.9750    0.0000 H       1  UNL1        0.0265
     40 H           5.9316    2.9750    0.0000 H       1  UNL1        0.0265
     41 H           8.2742   -1.0826    0.0000 H       1  UNL1        0.0265
     42 H           8.6728   -0.3923    0.0000 H       1  UNL1        0.0265
     43 H          11.9938    1.5250    0.0000 H       1  UNL1        0.0265
     44 H          12.7908    1.5250    0.0000 H       1  UNL1        0.0265
     45 H           5.0656    1.5250    0.0000 H       1  UNL1        0.0265
     46 H           5.8626    1.5250    0.0000 H       1  UNL1        0.0265
     47 H           6.9841   -0.4174    0.0000 H       1  UNL1        0.0265
     48 H           6.5856   -1.1077    0.0000 H       1  UNL1        0.0265
     49 H          13.6569    2.9750    0.0000 H       1  UNL1        0.0265
     50 H          12.8598    2.9750    0.0000 H       1  UNL1        0.0265
     51 H           4.9966    2.9750    0.0000 H       1  UNL1        0.0265
     52 H           4.1996    2.9750    0.0000 H       1  UNL1        0.0265
     53 H          13.7258    1.5250    0.0000 H       1  UNL1        0.0265
     54 H          14.5229    1.5250    0.0000 H       1  UNL1        0.0265
     55 H           3.3335    1.5250    0.0000 H       1  UNL1        0.0265
     56 H           4.1306    1.5250    0.0000 H       1  UNL1        0.0265
     57 H           7.4082   -2.5826    0.0000 H       1  UNL1        0.0263
     58 H           7.8067   -1.8923    0.0000 H       1  UNL1        0.0263
     59 H          15.3889    2.9750    0.0000 H       1  UNL1        0.0263
     60 H          14.5919    2.9750    0.0000 H       1  UNL1        0.0263
     61 H           3.2646    2.9750    0.0000 H       1  UNL1        0.0263
     62 H           2.4675    2.9750    0.0000 H       1  UNL1        0.0263
     63 H           6.0201   -1.9631    0.0000 H       1  UNL1        0.0230
     64 H           5.7932   -2.8100    0.0000 H       1  UNL1        0.0230
     65 H           6.6401   -3.0369    0.0000 H       1  UNL1        0.0230
     66 H          15.5464    1.4631    0.0000 H       1  UNL1        0.0230
     67 H          16.3933    1.6900    0.0000 H       1  UNL1        0.0230
     68 H          16.1664    2.5369    0.0000 H       1  UNL1        0.0230
     69 H           1.6900    2.5369    0.0000 H       1  UNL1        0.0230
     70 H           1.4631    1.6900    0.0000 H       1  UNL1        0.0230
     71 H           2.3100    1.4631    0.0000 H       1  UNL1        0.0230
@<TRIPOS>BOND
     1     1     2    1
     2     1     3    1
     3     1     4    1
     4     1    24    1
     5     2     5    1
     6     2    25    1
     7     2    26    1
     8     3     6    1
     9     3    27    1
    10     3    28    1
    11     4     7    1
    12     4    29    1
    13     4    30    1
    14     5     8    1
    15     5    31    1
    16     5    32    1
    17     6     9    1
    18     6    33    1
    19     6    34    1
    20     7    10    1
    21     7    35    1
    22     7    36    1
    23     8    11    1
    24     8    37    1
    25     8    38    1
    26     9    12    1
    27     9    39    1
    28     9    40    1
    29    10    13    1
    30    10    41    1
    31    10    42    1
    32    11    14    1
    33    11    43    1
    34    11    44    1
    35    12    15    1
    36    12    45    1
    37    12    46    1
    38    13    18    1
    39    13    47    1
    40    13    48    1
    41    14    16    1
    42    14    49    1
    43    14    50    1
    44    15    17    1
    45    15    51    1
    46    15    52    1
    47    16    19    1
    48    16    53    1
    49    16    54    1
    50    17    20    1
    51    17    55    1
    52    17    56    1
    53    18    21    1
    54    18    57    1
    55    18    58    1
    56    19    22    1
    57    19    59    1
    58    19    60    1
    59    20    23    1
    60    20    61    1
    61    20    62    1
    62    21    63    1
    63    21    64    1
    64    21    65    1
    65    22    66    1
    66    22    67    1
    67    22    68    1
    68    23    69    1
    69    23    70    1
    70    23    71    1
