@<TRIPOS>MOLECULE
IMPHY009985
 33 32 0 0 0
SMALL
GASTEIGER

@<TRIPOS>ATOM
      1 O           7.1962    0.2500    0.0000 O.3     1  UNL1       -0.4614
      2 O           8.0622   -1.2500    0.0000 O.2     1  UNL1       -0.2453
      3 C           4.5981   -0.2500    0.0000 C.3     1  UNL1       -0.0500
      4 C           3.7320    0.2500    0.0000 C.3     1  UNL1       -0.0532
      5 C           5.4641    0.2500    0.0000 C.3     1  UNL1       -0.0185
      6 C           2.8660   -0.2500    0.0000 C.3     1  UNL1       -0.0559
      7 C           6.3301   -0.2500    0.0000 C.3     1  UNL1        0.0928
      8 C           2.0000    0.2500    0.0000 C.3     1  UNL1       -0.0653
      9 C           8.0622   -0.2500    0.0000 C.2     1  UNL1        0.3346
     10 C           8.9282    0.2500    0.0000 C.2     1  UNL1        0.0293
     11 C           8.9282    1.2500    0.0000 C.3     1  UNL1       -0.0333
     12 C           9.7942   -0.2500    0.0000 C.2     1  UNL1       -0.0774
     13 C          10.6603    0.2500    0.0000 C.3     1  UNL1       -0.0461
     14 H           4.1996   -0.7249    0.0000 H       1  UNL1        0.0266
     15 H           4.9966   -0.7249    0.0000 H       1  UNL1        0.0266
     16 H           4.1306    0.7249    0.0000 H       1  UNL1        0.0265
     17 H           3.3335    0.7249    0.0000 H       1  UNL1        0.0265
     18 H           5.8626    0.7249    0.0000 H       1  UNL1        0.0298
     19 H           5.0656    0.7249    0.0000 H       1  UNL1        0.0298
     20 H           2.4675   -0.7249    0.0000 H       1  UNL1        0.0263
     21 H           3.2646   -0.7249    0.0000 H       1  UNL1        0.0263
     22 H           5.9316   -0.7249    0.0000 H       1  UNL1        0.0697
     23 H           6.7287   -0.7249    0.0000 H       1  UNL1        0.0697
     24 H           2.3100    0.7869    0.0000 H       1  UNL1        0.0230
     25 H           1.4631    0.5600    0.0000 H       1  UNL1        0.0230
     26 H           1.6900   -0.2869    0.0000 H       1  UNL1        0.0230
     27 H           9.5482    1.2500    0.0000 H       1  UNL1        0.0280
     28 H           8.9282    1.8700    0.0000 H       1  UNL1        0.0280
     29 H           8.3082    1.2500    0.0000 H       1  UNL1        0.0280
     30 H           9.7942   -0.8700    0.0000 H       1  UNL1        0.0574
     31 H          10.9703   -0.2869    0.0000 H       1  UNL1        0.0272
     32 H          11.1972    0.5600    0.0000 H       1  UNL1        0.0272
     33 H          10.3503    0.7869    0.0000 H       1  UNL1        0.0272
@<TRIPOS>BOND
     1     1     7    1
     2     1     9    1
     3     2     9    2
     4     3     4    1
     5     3     5    1
     6     3    14    1
     7     3    15    1
     8     4     6    1
     9     4    16    1
    10     4    17    1
    11     5     7    1
    12     5    18    1
    13     5    19    1
    14     6     8    1
    15     6    20    1
    16     6    21    1
    17     7    22    1
    18     7    23    1
    19     8    24    1
    20     8    25    1
    21     8    26    1
    22     9    10    1
    23    10    11    1
    24    10    12    2
    25    11    27    1
    26    11    28    1
    27    11    29    1
    28    12    13    1
    29    12    30    1
    30    13    31    1
    31    13    32    1
    32    13    33    1
