@<TRIPOS>MOLECULE
IMPHY007030
 62 69 0 0 0
SMALL
GASTEIGER

@<TRIPOS>ATOM
      1 O           8.7343    2.2841    0.0000 O.3     1  UNL1       -0.3477
      2 O           8.0001   -2.4929    0.0000 O.3     1  UNL1       -0.3600
      3 O           6.3004    1.7444    0.0000 O.3     1  UNL1       -0.4500
      4 O           6.4468    0.7800    0.0000 O.3     1  UNL1       -0.3765
      5 O           8.8216   -0.9861    0.0000 O.3     1  UNL1       -0.3776
      6 O           4.4998   -0.4733    0.0000 O.3     1  UNL1       -0.4523
      7 O           9.7258   -0.4892    0.0000 O.2     1  UNL1       -0.2936
      8 O           6.2085    3.5553    0.0000 O.2     1  UNL1       -0.2478
      9 O           4.8717    0.8806    0.0000 O.2     1  UNL1       -0.2452
     10 O           2.4720   -3.1039    0.0000 O.2     1  UNL1       -0.4706
     11 C           7.9715    1.5832    0.0000 C.3     1  UNL1        0.1610
     12 C           7.0735    1.0554    0.0000 C.3     1  UNL1        0.1791
     13 C           7.0895    0.0139    0.0000 C.3     1  UNL1        0.1751
     14 C           7.0895   -1.9861    0.0000 C.3     1  UNL1        0.1215
     15 C           7.9556   -0.4861    0.0000 C.3     1  UNL1        0.1637
     16 C           8.8736    1.0624    0.0000 C.3     1  UNL1        0.0622
     17 C           7.7458    2.5938    0.0000 C.3     1  UNL1        0.1894
     18 C           7.9556   -1.4861    0.0000 C.3     1  UNL1        0.0218
     19 C           6.2235   -1.4861    0.0000 C.2     1  UNL1       -0.0129
     20 C           7.1056   -3.0276    0.0000 C.3     1  UNL1        0.0928
     21 C           6.2235   -0.4861    0.0000 C.2     1  UNL1        0.0777
     22 C           5.3135   -1.9929    0.0000 C.3     1  UNL1        0.0339
     23 C           8.8656    0.0208    0.0000 C.2     1  UNL1        0.1765
     24 C           6.2076   -3.5553    0.0000 C.3     1  UNL1       -0.0226
     25 C           5.3055   -3.0345    0.0000 C.3     1  UNL1       -0.0376
     26 C           6.5062    0.0551    0.0000 C.3     1  UNL1       -0.0187
     27 C           6.7151    2.6932    0.0000 C.2     1  UNL1        0.3401
     28 C           9.8736    1.0585    0.0000 C.3     1  UNL1       -0.0501
     29 C           9.3769    1.9265    0.0000 C.3     1  UNL1       -0.0501
     30 C           4.4742   -1.4647    0.0000 C.3     1  UNL1        0.1403
     31 C           5.3653    0.0109    0.0000 C.2     1  UNL1        0.3389
     32 C           4.4418   -2.4828    0.0000 C.3     1  UNL1       -0.0520
     33 C           3.5926   -1.9367    0.0000 C.ar    1  UNL1        0.0313
     34 C           2.6926   -1.5010    0.0000 C.ar    1  UNL1       -0.0172
     35 C           3.4564   -2.9274    0.0000 C.ar    1  UNL1        0.0984
     36 C           2.0000   -2.2224    0.0000 C.ar    1  UNL1        0.0921
     37 H           7.8689    3.2014    0.0000 H       1  UNL1        0.0745
     38 H           8.1676   -2.0687    0.0000 H       1  UNL1        0.0330
     39 H           8.5661   -1.3784    0.0000 H       1  UNL1        0.0330
     40 H           7.4217   -3.5609    0.0000 H       1  UNL1        0.0628
     41 H           5.8102   -4.0313    0.0000 H       1  UNL1        0.0291
     42 H           6.6085   -4.0282    0.0000 H       1  UNL1        0.0291
     43 H           4.6955   -2.9237    0.0000 H       1  UNL1        0.0276
     44 H           5.0919   -3.6166    0.0000 H       1  UNL1        0.0276
     45 H           5.9668    0.3610    0.0000 H       1  UNL1        0.0270
     46 H           6.2003   -0.4842    0.0000 H       1  UNL1        0.0270
     47 H           7.0454   -0.2507    0.0000 H       1  UNL1        0.0270
     48 H           9.8712    0.4385    0.0000 H       1  UNL1        0.0240
     49 H          10.4936    1.0562    0.0000 H       1  UNL1        0.0240
     50 H           9.8760    1.6785    0.0000 H       1  UNL1        0.0240
     51 H           9.9127    1.6144    0.0000 H       1  UNL1        0.0240
     52 H           9.6890    2.4622    0.0000 H       1  UNL1        0.0240
     53 H           8.8412    2.2386    0.0000 H       1  UNL1        0.0240
     54 H           3.9464   -1.1393    0.0000 H       1  UNL1        0.0795
     55 H           5.8642    0.9921    0.0000 H       1  UNL1        0.2109
     56 H           8.8216   -1.6061    0.0000 H       1  UNL1        0.2109
     57 H           4.1380   -1.9424    0.0000 H       1  UNL1        0.0239
     58 H           3.9013   -2.7866    0.0000 H       1  UNL1        0.0239
     59 H           4.7455   -3.0233    0.0000 H       1  UNL1        0.0239
     60 H           2.5831   -0.8907    0.0000 H       1  UNL1        0.0653
     61 H           3.9036   -3.3568    0.0000 H       1  UNL1        0.1033
     62 H           1.3858   -2.1379    0.0000 H       1  UNL1        0.1029
@<TRIPOS>BOND
     1     1    11    1
     2     1    17    1
     3     2    14    1
     4     2    20    1
     5     3    12    1
     6     3    27    1
     7     4    13    1
     8     4    55    1
     9     5    15    1
    10     5    56    1
    11     6    30    1
    12     6    31    1
    13     7    23    2
    14     8    27    2
    15     9    31    2
    16    10    35   ar
    17    10    36   ar
    18    11    12    1
    19    11    16    1
    20    11    17    1
    21    12    13    1
    22    12    26    1
    23    13    15    1
    24    13    21    1
    25    14    18    1
    26    14    19    1
    27    14    20    1
    28    15    18    1
    29    15    23    1
    30    16    23    1
    31    16    28    1
    32    16    29    1
    33    17    27    1
    34    17    37    1
    35    18    38    1
    36    18    39    1
    37    19    21    2
    38    19    22    1
    39    20    24    1
    40    20    40    1
    41    21    31    1
    42    22    25    1
    43    22    30    1
    44    22    32    1
    45    24    25    1
    46    24    41    1
    47    24    42    1
    48    25    43    1
    49    25    44    1
    50    26    45    1
    51    26    46    1
    52    26    47    1
    53    28    48    1
    54    28    49    1
    55    28    50    1
    56    29    51    1
    57    29    52    1
    58    29    53    1
    59    30    33    1
    60    30    54    1
    61    32    57    1
    62    32    58    1
    63    32    59    1
    64    33    34   ar
    65    33    35   ar
    66    34    36   ar
    67    34    60    1
    68    35    61    1
    69    36    62    1
