@<TRIPOS>MOLECULE
IMPHY017593
 40 42 0 0 0
SMALL
GASTEIGER

@<TRIPOS>ATOM
      1 O           2.5836   -0.0084    0.0000 O.3     1  UNL1       -0.3751
      2 C           4.3958   -0.2037    0.0000 C.3     1  UNL1        0.0183
      3 C           3.5298    0.2963    0.0000 C.3     1  UNL1        0.0711
      4 C           3.5298    1.2963    0.0000 C.3     1  UNL1       -0.0092
      5 C           5.2619    0.2963    0.0000 C.3     1  UNL1       -0.0324
      6 C           4.3958    1.7963    0.0000 C.3     1  UNL1       -0.0472
      7 C           2.5836    1.6010    0.0000 C.3     1  UNL1       -0.0152
      8 C           5.2619    1.2963    0.0000 C.3     1  UNL1       -0.0493
      9 C           3.5868   -0.7915    0.0000 C.3     1  UNL1       -0.0376
     10 C           5.2049   -0.7915    0.0000 C.2     1  UNL1       -0.0761
     11 C           2.0000    0.7963    0.0000 C.3     1  UNL1        0.0510
     12 C           3.8958   -1.7425    0.0000 C.3     1  UNL1       -0.0311
     13 C           4.8958   -1.7425    0.0000 C.2     1  UNL1       -0.0759
     14 C           6.1279   -0.2037    0.0000 C.3     1  UNL1       -0.0615
     15 C           2.2729    2.5516    0.0000 C.3     1  UNL1       -0.0600
     16 C           5.4836   -2.5516    0.0000 C.3     1  UNL1       -0.0438
     17 H           3.4642   -0.3202    0.0000 H       1  UNL1        0.0607
     18 H           3.4642    1.9128    0.0000 H       1  UNL1        0.0329
     19 H           5.7988    0.6063    0.0000 H       1  UNL1        0.0307
     20 H           4.7944    2.2713    0.0000 H       1  UNL1        0.0269
     21 H           3.9973    2.2713    0.0000 H       1  UNL1        0.0269
     22 H           3.0211    2.0404    0.0000 H       1  UNL1        0.0324
     23 H           5.8725    1.1886    0.0000 H       1  UNL1        0.0268
     24 H           5.4739    1.8789    0.0000 H       1  UNL1        0.0268
     25 H           3.2768   -0.2545    0.0000 H       1  UNL1        0.0277
     26 H           3.0204   -1.0437    0.0000 H       1  UNL1        0.0277
     27 H           5.7945   -0.5999    0.0000 H       1  UNL1        0.0578
     28 H           1.5391    1.2110    0.0000 H       1  UNL1        0.0563
     29 H           1.5391    0.3816    0.0000 H       1  UNL1        0.0563
     30 H           3.2894   -1.8714    0.0000 H       1  UNL1        0.0310
     31 H           3.9607   -2.3591    0.0000 H       1  UNL1        0.0310
     32 H           5.8179   -0.7406    0.0000 H       1  UNL1        0.0233
     33 H           6.6648   -0.5137    0.0000 H       1  UNL1        0.0233
     34 H           6.4379    0.3332    0.0000 H       1  UNL1        0.0233
     35 H           2.8623    2.7442    0.0000 H       1  UNL1        0.0233
     36 H           2.0803    3.1409    0.0000 H       1  UNL1        0.0233
     37 H           1.6836    2.3589    0.0000 H       1  UNL1        0.0233
     38 H           4.9820   -2.9160    0.0000 H       1  UNL1        0.0274
     39 H           5.8481   -3.0532    0.0000 H       1  UNL1        0.0274
     40 H           5.9852   -2.1871    0.0000 H       1  UNL1        0.0274
@<TRIPOS>BOND
     1     1     3    1
     2     1    11    1
     3     2     3    1
     4     2     5    1
     5     2     9    1
     6     2    10    1
     7     3     4    1
     8     3    17    1
     9     4     6    1
    10     4     7    1
    11     4    18    1
    12     5     8    1
    13     5    14    1
    14     5    19    1
    15     6     8    1
    16     6    20    1
    17     6    21    1
    18     7    11    1
    19     7    15    1
    20     7    22    1
    21     8    23    1
    22     8    24    1
    23     9    12    1
    24     9    25    1
    25     9    26    1
    26    10    13    2
    27    10    27    1
    28    11    28    1
    29    11    29    1
    30    12    13    1
    31    12    30    1
    32    12    31    1
    33    13    16    1
    34    14    32    1
    35    14    33    1
    36    14    34    1
    37    15    35    1
    38    15    36    1
    39    15    37    1
    40    16    38    1
    41    16    39    1
    42    16    40    1
