@<TRIPOS>MOLECULE
IMPHY015759
 42 45 0 0 0
SMALL
GASTEIGER

@<TRIPOS>ATOM
      1 O           5.4934    2.0682    0.0000 O.2     1  UNL1       -0.4871
      2 O           5.6224   -0.0989    0.0000 O.2     1  UNL1       -0.2833
      3 O           2.1583    1.9011    0.0000 O.2     1  UNL1       -0.2868
      4 C           3.0000   -2.7531    0.0000 C.3     1  UNL1       -0.0096
      5 C           3.9396   -3.2956    0.0000 C.3     1  UNL1       -0.0436
      6 C           3.0084   -1.6682    0.0000 C.ar    1  UNL1       -0.0378
      7 C           3.9064   -1.1404    0.0000 C.ar    1  UNL1       -0.0321
      8 C           4.8750   -2.7459    0.0000 C.3     1  UNL1       -0.0482
      9 C           4.8583   -1.6610    0.0000 C.3     1  UNL1       -0.0267
     10 C           3.8903   -0.0989    0.0000 C.ar    1  UNL1        0.0396
     11 C           2.4967   -3.6172    0.0000 C.3     1  UNL1       -0.0558
     12 C           2.0000   -2.7493    0.0000 C.3     1  UNL1       -0.0558
     13 C           3.0243    0.4011    0.0000 C.ar    1  UNL1        0.0333
     14 C           2.1063   -1.1474    0.0000 C.ar    1  UNL1       -0.0571
     15 C           3.8903    1.9011    0.0000 C.2     1  UNL1        0.0513
     16 C           4.0995    2.8729    0.0000 C.3     1  UNL1        0.0227
     17 C           4.7564    0.4011    0.0000 C.2     1  UNL1        0.2287
     18 C           4.7564    1.4011    0.0000 C.2     1  UNL1        0.1747
     19 C           2.1143   -0.1057    0.0000 C.ar    1  UNL1       -0.0499
     20 C           3.0243    1.4011    0.0000 C.2     1  UNL1        0.1939
     21 C           5.0883    2.9760    0.0000 C.3     1  UNL1        0.0965
     22 C           3.4317    3.6172    0.0000 C.3     1  UNL1       -0.0550
     23 H           3.5423   -3.7716    0.0000 H       1  UNL1        0.0274
     24 H           4.3406   -3.7685    0.0000 H       1  UNL1        0.0274
     25 H           5.0931   -3.3263    0.0000 H       1  UNL1        0.0269
     26 H           5.4842   -2.6304    0.0000 H       1  UNL1        0.0269
     27 H           5.4707   -1.7577    0.0000 H       1  UNL1        0.0313
     28 H           5.0584   -1.0742    0.0000 H       1  UNL1        0.0313
     29 H           1.9609   -3.3052    0.0000 H       1  UNL1        0.0238
     30 H           2.1846   -4.1530    0.0000 H       1  UNL1        0.0238
     31 H           3.0324   -3.9293    0.0000 H       1  UNL1        0.0238
     32 H           2.0024   -2.1293    0.0000 H       1  UNL1        0.0238
     33 H           1.3800   -2.7469    0.0000 H       1  UNL1        0.0238
     34 H           1.9976   -3.3693    0.0000 H       1  UNL1        0.0238
     35 H           1.5682   -1.4553    0.0000 H       1  UNL1        0.0621
     36 H           3.5003    2.7137    0.0000 H       1  UNL1        0.0381
     37 H           1.5810    0.2104    0.0000 H       1  UNL1        0.0625
     38 H           5.6779    3.1677    0.0000 H       1  UNL1        0.0702
     39 H           4.9595    3.5825    0.0000 H       1  UNL1        0.0702
     40 H           3.8932    4.0313    0.0000 H       1  UNL1        0.0237
     41 H           3.0176    4.0787    0.0000 H       1  UNL1        0.0237
     42 H           2.9702    3.2032    0.0000 H       1  UNL1        0.0237
@<TRIPOS>BOND
     1     1    18    1
     2     1    21    1
     3     2    17    2
     4     3    20    2
     5     4     5    1
     6     4     6    1
     7     4    11    1
     8     4    12    1
     9     5     8    1
    10     5    23    1
    11     5    24    1
    12     6     7   ar
    13     6    14   ar
    14     7     9    1
    15     7    10   ar
    16     8     9    1
    17     8    25    1
    18     8    26    1
    19     9    27    1
    20     9    28    1
    21    10    13   ar
    22    10    17    1
    23    11    29    1
    24    11    30    1
    25    11    31    1
    26    12    32    1
    27    12    33    1
    28    12    34    1
    29    13    19   ar
    30    13    20    1
    31    14    19   ar
    32    14    35    1
    33    15    16    1
    34    15    18    2
    35    15    20    1
    36    16    21    1
    37    16    22    1
    38    16    36    1
    39    17    18    1
    40    19    37    1
    41    21    38    1
    42    21    39    1
    43    22    40    1
    44    22    41    1
    45    22    42    1
