@<TRIPOS>MOLECULE
IMPHY016985
 20 21 0 0 0
SMALL
GASTEIGER

@<TRIPOS>ATOM
      1 C           4.3089    0.9242    0.0000 C.3     1  UNL1       -0.0365
      2 C           4.0501   -0.0417    0.0000 C.3     1  UNL1       -0.0196
      3 C           5.4490   -0.0329    0.0000 C.3     1  UNL1       -0.0434
      4 C           3.5723    1.9068    0.0000 C.3     1  UNL1       -0.0434
      5 C           2.2756    0.6130    0.0000 C.3     1  UNL1       -0.0316
      6 C           2.8290   -0.9074    0.0000 C.2     1  UNL1       -0.0734
      7 C           2.0000   -0.3482    0.0000 C.2     1  UNL1       -0.0845
      8 C           2.8639   -1.9068    0.0000 C.3     1  UNL1       -0.0435
      9 H           4.7592    1.3504    0.0000 H       1  UNL1        0.0304
     10 H           4.2401   -0.6319    0.0000 H       1  UNL1        0.0346
     11 H           5.6293   -0.6261    0.0000 H       1  UNL1        0.0274
     12 H           5.9663    0.3088    0.0000 H       1  UNL1        0.0274
     13 H           3.8901    2.4392    0.0000 H       1  UNL1        0.0274
     14 H           2.9591    1.9988    0.0000 H       1  UNL1        0.0274
     15 H           2.2706    1.2330    0.0000 H       1  UNL1        0.0310
     16 H           1.6613    0.6968    0.0000 H       1  UNL1        0.0310
     17 H           1.4174   -0.5603    0.0000 H       1  UNL1        0.0572
     18 H           2.2443   -1.9284    0.0000 H       1  UNL1        0.0274
     19 H           2.8856   -2.5264    0.0000 H       1  UNL1        0.0274
     20 H           3.4836   -1.8852    0.0000 H       1  UNL1        0.0274
@<TRIPOS>BOND
     1     1     3    1
     2     1     4    1
     3     1     5    1
     4     1     9    1
     5     2     3    1
     6     2     4    1
     7     2     6    1
     8     2    10    1
     9     3    11    1
    10     3    12    1
    11     4    13    1
    12     4    14    1
    13     5     7    1
    14     5    15    1
    15     5    16    1
    16     6     7    2
    17     6     8    1
    18     7    17    1
    19     8    18    1
    20     8    19    1
    21     8    20    1
