@<TRIPOS>MOLECULE
IMPHY008878
 52 55 0 0 0
SMALL
GASTEIGER

@<TRIPOS>ATOM
      1 CL          4.0567    0.0000    0.0000 Cl      1  UNL1       -0.1454
      2 O           8.3307    6.0193    0.0000 O.2     2  UNL2       -0.4957
      3 O           6.1655    3.7568    0.0000 O.3     2  UNL2       -0.4646
      4 O           4.8918    4.9306    0.0000 O.2     2  UNL2       -0.2452
      5 N           5.5712    8.4468    0.0000 N.3     2  UNL2       -0.2933
      6 N           3.1182    7.3293    0.0000 N.ar    2  UNL2       -0.3564
      7 C           6.9228    7.2578    0.0000 C.3     2  UNL2        0.0157
      8 C           6.2258    6.4837    0.0000 C.3     2  UNL2        0.0029
      9 C           4.9021    7.7036    0.0000 C.3     2  UNL2        0.0515
     10 C           5.2086    6.7081    0.0000 C.3     2  UNL2       -0.0243
     11 C           6.5933    8.2459    0.0000 C.3     2  UNL2        0.0063
     12 C           7.9874    7.0486    0.0000 C.3     2  UNL2        0.1011
     13 C           3.9239    7.9115    0.0000 C.ar    2  UNL2        0.0376
     14 C           5.2622    9.3978    0.0000 C.3     2  UNL2        0.0036
     15 C           3.6149    8.8626    0.0000 C.ar    2  UNL2       -0.0164
     16 C           4.2840    9.6057    0.0000 C.3     2  UNL2       -0.0125
     17 C           6.5451    5.4468    0.0000 C.2     2  UNL2        0.0742
     18 C           2.6208    8.8600    0.0000 C.ar    2  UNL2        0.0032
     19 C           8.6479    7.7994    0.0000 C.3     2  UNL2       -0.0275
     20 C           7.6047    5.2130    0.0000 C.2     2  UNL2        0.0951
     21 C           2.3145    7.9143    0.0000 C.ar    2  UNL2        0.0470
     22 C           5.8675    4.7114    0.0000 C.2     2  UNL2        0.3381
     23 C           1.9392    9.6395    0.0000 C.ar    2  UNL2       -0.0523
     24 C           1.3053    7.6826    0.0000 C.ar    2  UNL2       -0.0378
     25 C           0.9250    9.4312    0.0000 C.ar    2  UNL2       -0.0611
     26 C           0.6058    8.4461    0.0000 C.ar    2  UNL2       -0.0598
     27 C           5.4878    3.0215    0.0000 C.3     2  UNL2        0.0820
     28 H           7.4842    7.8960    0.0000 H       2  UNL2        0.0355
     29 H           5.6498    5.8586    0.0000 H       2  UNL2        0.0357
     30 H           4.3285    7.0764    0.0000 H       2  UNL2        0.0527
     31 H           4.5936    6.6297    0.0000 H       2  UNL2        0.0290
     32 H           5.1806    6.0888    0.0000 H       2  UNL2        0.0290
     33 H           7.2063    8.3385    0.0000 H       2  UNL2        0.0431
     34 H           6.6070    8.8658    0.0000 H       2  UNL2        0.0431
     35 H           8.5951    6.9255    0.0000 H       2  UNL2        0.0733
     36 H           5.8762    9.4841    0.0000 H       2  UNL2        0.0430
     37 H           5.2838   10.0174    0.0000 H       2  UNL2        0.0430
     38 H           4.5163   10.1806    0.0000 H       2  UNL2        0.0326
     39 H           3.7582    9.9343    0.0000 H       2  UNL2        0.0326
     40 H           3.1171    6.7093    0.0000 H       2  UNL2        0.1656
     41 H           9.1134    7.3899    0.0000 H       2  UNL2        0.0265
     42 H           9.0574    8.2649    0.0000 H       2  UNL2        0.0265
     43 H           8.1824    8.2089    0.0000 H       2  UNL2        0.0265
     44 H           7.7940    4.6226    0.0000 H       2  UNL2        0.1028
     45 H           2.1371   10.2271    0.0000 H       2  UNL2        0.0624
     46 H           1.1210    7.0906    0.0000 H       2  UNL2        0.0638
     47 H           0.5115    9.8931    0.0000 H       2  UNL2        0.0618
     48 H           0.0000    8.3143    0.0000 H       2  UNL2        0.0618
     49 H           5.0319    3.4416    0.0000 H       2  UNL2        0.0661
     50 H           5.0676    2.5656    0.0000 H       2  UNL2        0.0661
     51 H           5.9437    2.6013    0.0000 H       2  UNL2        0.0661
     52 H           5.0567    0.0000    0.0000 H       1  UNL1        0.1454
@<TRIPOS>BOND
     1     1    52    1
     2     2    12    1
     3     2    20    1
     4     3    22    1
     5     3    27    1
     6     4    22    2
     7     5     9    1
     8     5    11    1
     9     5    14    1
    10     6    13   ar
    11     6    21   ar
    12     6    40    1
    13     7     8    1
    14     7    11    1
    15     7    12    1
    16     7    28    1
    17     8    10    1
    18     8    17    1
    19     8    29    1
    20     9    10    1
    21     9    13    1
    22     9    30    1
    23    10    31    1
    24    10    32    1
    25    11    33    1
    26    11    34    1
    27    12    19    1
    28    12    35    1
    29    13    15   ar
    30    14    16    1
    31    14    36    1
    32    14    37    1
    33    15    16    1
    34    15    18   ar
    35    16    38    1
    36    16    39    1
    37    17    20    2
    38    17    22    1
    39    18    21   ar
    40    18    23   ar
    41    19    41    1
    42    19    42    1
    43    19    43    1
    44    20    44    1
    45    21    24   ar
    46    23    25   ar
    47    23    45    1
    48    24    26   ar
    49    24    46    1
    50    25    26   ar
    51    25    47    1
    52    26    48    1
    53    27    49    1
    54    27    50    1
    55    27    51    1
