@<TRIPOS>MOLECULE
IMPHY003519
 23 22 0 0 0
SMALL
GASTEIGER

@<TRIPOS>ATOM
      1 O           5.4641    0.7500    0.0000 O.3     1  UNL1       -0.4648
      2 O           6.3301   -0.7500    0.0000 O.2     1  UNL1       -0.2512
      3 C           2.8660    0.2500    0.0000 C.3     1  UNL1       -0.0436
      4 C           3.7320    0.7500    0.0000 C.3     1  UNL1       -0.0162
      5 C           4.5981    0.2500    0.0000 C.3     1  UNL1        0.0927
      6 C           2.0000    0.7500    0.0000 C.3     1  UNL1       -0.0626
      7 C           2.8660   -0.7500    0.0000 C.3     1  UNL1       -0.0626
      8 C           6.3301    0.2500    0.0000 C.2     1  UNL1        0.3039
      9 C           7.1962    0.7500    0.0000 C.3     1  UNL1        0.0332
     10 H           2.8660    0.8700    0.0000 H       1  UNL1        0.0297
     11 H           4.1306    1.2250    0.0000 H       1  UNL1        0.0300
     12 H           3.3335    1.2250    0.0000 H       1  UNL1        0.0300
     13 H           4.1996   -0.2249    0.0000 H       1  UNL1        0.0697
     14 H           4.9966   -0.2249    0.0000 H       1  UNL1        0.0697
     15 H           2.3100    1.2869    0.0000 H       1  UNL1        0.0232
     16 H           1.4631    1.0600    0.0000 H       1  UNL1        0.0232
     17 H           1.6900    0.2131    0.0000 H       1  UNL1        0.0232
     18 H           2.2460   -0.7500    0.0000 H       1  UNL1        0.0232
     19 H           2.8660   -1.3700    0.0000 H       1  UNL1        0.0232
     20 H           3.4860   -0.7500    0.0000 H       1  UNL1        0.0232
     21 H           7.5062    0.2131    0.0000 H       1  UNL1        0.0342
     22 H           7.7331    1.0600    0.0000 H       1  UNL1        0.0342
     23 H           6.8862    1.2869    0.0000 H       1  UNL1        0.0342
@<TRIPOS>BOND
     1     1     5    1
     2     1     8    1
     3     2     8    2
     4     3     4    1
     5     3     6    1
     6     3     7    1
     7     3    10    1
     8     4     5    1
     9     4    11    1
    10     4    12    1
    11     5    13    1
    12     5    14    1
    13     6    15    1
    14     6    16    1
    15     6    17    1
    16     7    18    1
    17     7    19    1
    18     7    20    1
    19     8     9    1
    20     9    21    1
    21     9    22    1
    22     9    23    1
