@<TRIPOS>MOLECULE
IMPHY014056
 37 39 0 0 0
SMALL
GASTEIGER

@<TRIPOS>ATOM
      1 O           6.0682   -0.9031    0.0000 O.2     1  UNL1       -0.4505
      2 O           4.3198   -1.9377    0.0000 O.3     1  UNL1       -0.4884
      3 O           2.5381    1.1211    0.0000 O.3     1  UNL1       -0.4913
      4 O           6.0682    2.0969    0.0000 O.2     1  UNL1       -0.2863
      5 O           7.8167    2.1315    0.0000 O.3     1  UNL1       -0.5058
      6 O           9.5984   -0.9273    0.0000 O.3     1  UNL1       -0.4949
      7 O           2.5381   -0.9273    0.0000 O.3     1  UNL1       -0.5008
      8 C           5.2022    0.5969    0.0000 C.ar    1  UNL1        0.0721
      9 C           5.2022   -0.4031    0.0000 C.ar    1  UNL1        0.1845
     10 C           6.9343    0.5969    0.0000 C.ar    1  UNL1        0.1061
     11 C           6.9343   -0.4031    0.0000 C.ar    1  UNL1        0.1464
     12 C           6.0682    1.0969    0.0000 C.ar    1  UNL1        0.2039
     13 C           4.3083   -0.9378    0.0000 C.ar    1  UNL1        0.2084
     14 C           4.3083    1.1316    0.0000 C.ar    1  UNL1       -0.0017
     15 C           7.8282    1.1316    0.0000 C.ar    1  UNL1        0.1347
     16 C           3.4022    0.6177    0.0000 C.ar    1  UNL1        0.1659
     17 C           3.4022   -0.4239    0.0000 C.ar    1  UNL1        0.2048
     18 C           7.8282   -0.9378    0.0000 C.ar    1  UNL1        0.0233
     19 C           8.7343   -0.4239    0.0000 C.ar    1  UNL1        0.1271
     20 C           8.7343    0.6177    0.0000 C.ar    1  UNL1        0.0225
     21 C           3.4597   -2.4477    0.0000 C.3     1  UNL1        0.0791
     22 C           2.5420    2.1210    0.0000 C.3     1  UNL1        0.0790
     23 C          10.4663   -0.4306    0.0000 C.3     1  UNL1        0.0788
     24 H           4.3154    1.7515    0.0000 H       1  UNL1        0.0664
     25 H           7.8210   -1.5577    0.0000 H       1  UNL1        0.0691
     26 H           9.2700    0.9298    0.0000 H       1  UNL1        0.0691
     27 H           8.3500    2.4477    0.0000 H       1  UNL1        0.2922
     28 H           2.0000   -0.6193    0.0000 H       1  UNL1        0.2924
     29 H           3.1435   -1.9144    0.0000 H       1  UNL1        0.0660
     30 H           2.9263   -2.7639    0.0000 H       1  UNL1        0.0660
     31 H           3.7758   -2.9810    0.0000 H       1  UNL1        0.0660
     32 H           3.1620    2.1186    0.0000 H       1  UNL1        0.0660
     33 H           2.5444    2.7410    0.0000 H       1  UNL1        0.0660
     34 H           1.9220    2.1234    0.0000 H       1  UNL1        0.0660
     35 H          10.7743   -0.9687    0.0000 H       1  UNL1        0.0660
     36 H          11.0045   -0.1227    0.0000 H       1  UNL1        0.0660
     37 H          10.1584    0.1075    0.0000 H       1  UNL1        0.0660
@<TRIPOS>BOND
     1     1     9   ar
     2     1    11   ar
     3     2    13    1
     4     2    21    1
     5     3    16    1
     6     3    22    1
     7     4    12    2
     8     5    15    1
     9     5    27    1
    10     6    19    1
    11     6    23    1
    12     7    17    1
    13     7    28    1
    14     8     9   ar
    15     8    12   ar
    16     8    14   ar
    17     9    13   ar
    18    10    11   ar
    19    10    12   ar
    20    10    15   ar
    21    11    18   ar
    22    13    17   ar
    23    14    16   ar
    24    14    24    1
    25    15    20   ar
    26    16    17   ar
    27    18    19   ar
    28    18    25    1
    29    19    20   ar
    30    20    26    1
    31    21    29    1
    32    21    30    1
    33    21    31    1
    34    22    32    1
    35    22    33    1
    36    22    34    1
    37    23    35    1
    38    23    36    1
    39    23    37    1
