@<TRIPOS>MOLECULE
IMPHY014189
 74 76 0 0 0
SMALL
GASTEIGER

@<TRIPOS>ATOM
      1 O           8.1301   -1.2635    0.0000 O.2     1  UNL1       -0.4542
      2 O           4.6000   -1.2877    0.0000 O.3     1  UNL1       -0.4914
      3 O          11.6602   -1.2877    0.0000 O.3     1  UNL1       -0.4882
      4 O          11.6602    0.7606    0.0000 O.3     1  UNL1       -0.4911
      5 O           6.3817    1.7711    0.0000 O.3     1  UNL1       -0.5055
      6 O           8.1301    1.7365    0.0000 O.2     1  UNL1       -0.2863
      7 C           8.9961    0.2365    0.0000 C.ar    1  UNL1        0.0719
      8 C           9.8901    0.7712    0.0000 C.ar    1  UNL1        0.0160
      9 C           7.2641    0.2365    0.0000 C.ar    1  UNL1        0.1064
     10 C           8.9961   -0.7635    0.0000 C.ar    1  UNL1        0.1432
     11 C           7.2641   -0.7635    0.0000 C.ar    1  UNL1        0.1463
     12 C           8.1301    0.7365    0.0000 C.ar    1  UNL1        0.2041
     13 C           5.4641    0.2573    0.0000 C.ar    1  UNL1        0.0403
     14 C           6.3701    0.7712    0.0000 C.ar    1  UNL1        0.1381
     15 C          10.7961    0.2573    0.0000 C.ar    1  UNL1        0.1659
     16 C           9.8785    1.7711    0.0000 C.3     1  UNL1       -0.0049
     17 C           5.4641   -0.7843    0.0000 C.ar    1  UNL1        0.1310
     18 C          10.7961   -0.7843    0.0000 C.ar    1  UNL1        0.1657
     19 C           9.8901   -1.2982    0.0000 C.ar    1  UNL1        0.0268
     20 C           6.3701   -1.2982    0.0000 C.ar    1  UNL1        0.0236
     21 C           4.6000    0.7606    0.0000 C.3     1  UNL1       -0.0023
     22 C          10.7387    2.2811    0.0000 C.2     1  UNL1       -0.0808
     23 C           3.7320    0.2640    0.0000 C.2     1  UNL1       -0.0807
     24 C           4.6038   -2.2877    0.0000 C.3     1  UNL1        0.0894
     25 C          11.6564   -2.2877    0.0000 C.3     1  UNL1        0.0895
     26 C          10.7271    3.2810    0.0000 C.2     1  UNL1       -0.0793
     27 C           2.8680    0.7673    0.0000 C.2     1  UNL1       -0.0793
     28 C           3.7398   -2.7910    0.0000 C.3     1  UNL1       -0.0215
     29 C          12.5205   -2.7910    0.0000 C.3     1  UNL1       -0.0215
     30 C          12.5282    0.2640    0.0000 C.3     1  UNL1        0.0790
     31 C          11.5873    3.7910    0.0000 C.3     1  UNL1       -0.0440
     32 C           9.8554    3.7710    0.0000 C.3     1  UNL1       -0.0440
     33 C           2.0000    0.2707    0.0000 C.3     1  UNL1       -0.0440
     34 C           2.8718    1.7673    0.0000 C.3     1  UNL1       -0.0440
     35 C           3.7436   -3.7910    0.0000 C.3     1  UNL1       -0.0622
     36 C          12.5166   -3.7910    0.0000 C.3     1  UNL1       -0.0622
     37 H           9.6597    2.3512    0.0000 H       1  UNL1        0.0357
     38 H           9.2692    1.6564    0.0000 H       1  UNL1        0.0357
     39 H           9.8829   -1.9181    0.0000 H       1  UNL1        0.0692
     40 H           6.3773   -1.9181    0.0000 H       1  UNL1        0.0691
     41 H           5.0003    1.2341    0.0000 H       1  UNL1        0.0358
     42 H           4.2033    1.2371    0.0000 H       1  UNL1        0.0358
     43 H          11.2792    1.9773    0.0000 H       1  UNL1        0.0575
     44 H           3.7296   -0.3560    0.0000 H       1  UNL1        0.0575
     45 H           4.8181   -2.8694    0.0000 H       1  UNL1        0.0696
     46 H           5.2140   -2.1776    0.0000 H       1  UNL1        0.0696
     47 H          11.0462   -2.1776    0.0000 H       1  UNL1        0.0696
     48 H          11.4421   -2.8694    0.0000 H       1  UNL1        0.0696
     49 H           5.8484    2.0873    0.0000 H       1  UNL1        0.2922
     50 H           3.5254   -2.2092    0.0000 H       1  UNL1        0.0295
     51 H           3.1296   -2.9010    0.0000 H       1  UNL1        0.0295
     52 H          13.1306   -2.9010    0.0000 H       1  UNL1        0.0295
     53 H          12.7348   -2.2092    0.0000 H       1  UNL1        0.0295
     54 H          12.2203   -0.2741    0.0000 H       1  UNL1        0.0660
     55 H          13.0663   -0.0439    0.0000 H       1  UNL1        0.0660
     56 H          12.8361    0.8021    0.0000 H       1  UNL1        0.0660
     57 H          11.9035    3.2577    0.0000 H       1  UNL1        0.0274
     58 H          12.1206    4.1072    0.0000 H       1  UNL1        0.0274
     59 H          11.2711    4.3243    0.0000 H       1  UNL1        0.0274
     60 H          10.1592    4.3114    0.0000 H       1  UNL1        0.0274
     61 H           9.3149    4.0747    0.0000 H       1  UNL1        0.0274
     62 H           9.5516    3.2305    0.0000 H       1  UNL1        0.0274
     63 H           1.6921    0.8088    0.0000 H       1  UNL1        0.0274
     64 H           1.4619   -0.0373    0.0000 H       1  UNL1        0.0274
     65 H           2.3079   -0.2675    0.0000 H       1  UNL1        0.0274
     66 H           3.4918    1.7649    0.0000 H       1  UNL1        0.0274
     67 H           2.8742    2.3873    0.0000 H       1  UNL1        0.0274
     68 H           2.2518    1.7697    0.0000 H       1  UNL1        0.0274
     69 H           3.1236   -3.7934    0.0000 H       1  UNL1        0.0231
     70 H           3.7460   -4.4110    0.0000 H       1  UNL1        0.0231
     71 H           4.3636   -3.7886    0.0000 H       1  UNL1        0.0231
     72 H          11.8966   -3.7886    0.0000 H       1  UNL1        0.0231
     73 H          12.5142   -4.4110    0.0000 H       1  UNL1        0.0231
     74 H          13.1366   -3.7934    0.0000 H       1  UNL1        0.0231
@<TRIPOS>BOND
     1     1    10   ar
     2     1    11   ar
     3     2    17    1
     4     2    24    1
     5     3    18    1
     6     3    25    1
     7     4    15    1
     8     4    30    1
     9     5    14    1
    10     5    49    1
    11     6    12    2
    12     7     8   ar
    13     7    10   ar
    14     7    12   ar
    15     8    15   ar
    16     8    16    1
    17     9    11   ar
    18     9    12   ar
    19     9    14   ar
    20    10    19   ar
    21    11    20   ar
    22    13    14   ar
    23    13    17   ar
    24    13    21    1
    25    15    18   ar
    26    16    22    1
    27    16    37    1
    28    16    38    1
    29    17    20   ar
    30    18    19   ar
    31    19    39    1
    32    20    40    1
    33    21    23    1
    34    21    41    1
    35    21    42    1
    36    22    26    2
    37    22    43    1
    38    23    27    2
    39    23    44    1
    40    24    28    1
    41    24    45    1
    42    24    46    1
    43    25    29    1
    44    25    47    1
    45    25    48    1
    46    26    31    1
    47    26    32    1
    48    27    33    1
    49    27    34    1
    50    28    35    1
    51    28    50    1
    52    28    51    1
    53    29    36    1
    54    29    52    1
    55    29    53    1
    56    30    54    1
    57    30    55    1
    58    30    56    1
    59    31    57    1
    60    31    58    1
    61    31    59    1
    62    32    60    1
    63    32    61    1
    64    32    62    1
    65    33    63    1
    66    33    64    1
    67    33    65    1
    68    34    66    1
    69    34    67    1
    70    34    68    1
    71    35    69    1
    72    35    70    1
    73    35    71    1
    74    36    72    1
    75    36    73    1
    76    36    74    1
