@<TRIPOS>MOLECULE
IMPHY010218
 69 73 0 0 0
SMALL
GASTEIGER

@<TRIPOS>ATOM
      1 O           9.0646   -1.2857    0.0000 O.3     1  UNL1       -0.3313
      2 O           4.6870   -1.6924    0.0000 O.3     1  UNL1       -0.3405
      3 O           6.4666   -1.7857    0.0000 O.3     1  UNL1       -0.3460
      4 O           7.3326   -3.2857    0.0000 O.3     1  UNL1       -0.3865
      5 O           9.0646   -4.2857    0.0000 O.3     1  UNL1       -0.3864
      6 O          10.7967   -1.2857    0.0000 O.3     1  UNL1       -0.4532
      7 O          10.7967   -3.2857    0.0000 O.3     1  UNL1       -0.3829
      8 O           6.2392    0.3780    0.0000 O.3     1  UNL1       -0.3841
      9 O           4.1111    0.8303    0.0000 O.3     1  UNL1       -0.3864
     10 O           2.6166   -1.9673    0.0000 O.3     1  UNL1       -0.3924
     11 O          11.6627    1.2143    0.0000 O.2     1  UNL1       -0.4507
     12 O           9.0646   -0.2857    0.0000 O.2     1  UNL1       -0.2830
     13 O           8.1605    1.2112    0.0000 O.3     1  UNL1       -0.5058
     14 O           9.9186    4.2836    0.0000 O.3     1  UNL1       -0.5065
     15 O          15.1268   -1.7857    0.0000 O.3     1  UNL1       -0.5068
     16 C           8.1986   -1.7857    0.0000 C.3     1  UNL1        0.1144
     17 C           8.1986   -2.7857    0.0000 C.3     1  UNL1        0.1120
     18 C           9.0646   -3.2857    0.0000 C.3     1  UNL1        0.1152
     19 C           9.9307   -2.7857    0.0000 C.3     1  UNL1        0.1454
     20 C           5.6005   -1.2857    0.0000 C.3     1  UNL1        0.1880
     21 C           5.4960   -0.2911    0.0000 C.3     1  UNL1        0.1341
     22 C           4.5179   -0.0832    0.0000 C.3     1  UNL1        0.1141
     23 C           9.9307   -1.7857    0.0000 C.3     1  UNL1        0.2311
     24 C           4.0179   -0.9493    0.0000 C.3     1  UNL1        0.1131
     25 C           7.3326   -1.2857    0.0000 C.3     1  UNL1        0.0796
     26 C           3.0233   -1.0538    0.0000 C.3     1  UNL1        0.0730
     27 C          10.7967   -0.2857    0.0000 C.ar    1  UNL1        0.2138
     28 C          11.6627    0.2143    0.0000 C.ar    1  UNL1        0.1809
     29 C           9.9307    0.2143    0.0000 C.ar    1  UNL1        0.2382
     30 C           9.9307    1.2143    0.0000 C.ar    1  UNL1        0.1092
     31 C          10.7967    1.7143    0.0000 C.ar    1  UNL1        0.1465
     32 C          12.5287   -0.2857    0.0000 C.ar    1  UNL1        0.0213
     33 C           9.0207    1.7212    0.0000 C.ar    1  UNL1        0.1348
     34 C          10.8127    2.7558    0.0000 C.ar    1  UNL1        0.0231
     35 C          12.5287   -1.2857    0.0000 C.ar    1  UNL1       -0.0475
     36 C          13.3948    0.2143    0.0000 C.ar    1  UNL1       -0.0475
     37 C           9.0126    2.7628    0.0000 C.ar    1  UNL1        0.0223
     38 C           9.9147    3.2836    0.0000 C.ar    1  UNL1        0.1239
     39 C          13.3948   -1.7857    0.0000 C.ar    1  UNL1       -0.0195
     40 C          14.2608   -0.2857    0.0000 C.ar    1  UNL1       -0.0195
     41 C          14.2608   -1.2857    0.0000 C.ar    1  UNL1        0.1169
     42 H           8.1986   -1.1657    0.0000 H       1  UNL1        0.0647
     43 H           7.6617   -2.4757    0.0000 H       1  UNL1        0.0647
     44 H           8.5277   -3.5957    0.0000 H       1  UNL1        0.0648
     45 H           9.9307   -3.4057    0.0000 H       1  UNL1        0.0683
     46 H           6.1205   -0.9480    0.0000 H       1  UNL1        0.0937
     47 H           6.0748   -0.5133    0.0000 H       1  UNL1        0.0671
     48 H           4.9080    0.3986    0.0000 H       1  UNL1        0.0648
     49 H           9.9307   -1.1657    0.0000 H       1  UNL1        0.1084
     50 H           3.7957   -1.5281    0.0000 H       1  UNL1        0.0647
     51 H           7.7311   -0.8107    0.0000 H       1  UNL1        0.0587
     52 H           6.9341   -0.8107    0.0000 H       1  UNL1        0.0587
     53 H           3.0666   -0.4353    0.0000 H       1  UNL1        0.0584
     54 H           2.4218   -0.9038    0.0000 H       1  UNL1        0.0584
     55 H           7.3326   -3.9057    0.0000 H       1  UNL1        0.2100
     56 H           8.5277   -4.5957    0.0000 H       1  UNL1        0.2100
     57 H          10.7967   -3.9057    0.0000 H       1  UNL1        0.2102
     58 H           6.1102    0.9844    0.0000 H       1  UNL1        0.2101
     59 H           3.4945    0.8951    0.0000 H       1  UNL1        0.2100
     60 H           2.0000   -2.0321    0.0000 H       1  UNL1        0.2095
     61 H          11.3532    3.0596    0.0000 H       1  UNL1        0.0691
     62 H          11.9918   -1.5957    0.0000 H       1  UNL1        0.0626
     63 H          13.3948    0.8343    0.0000 H       1  UNL1        0.0626
     64 H           8.4745    3.0707    0.0000 H       1  UNL1        0.0691
     65 H          13.3948   -2.4057    0.0000 H       1  UNL1        0.0654
     66 H          14.7977    0.0243    0.0000 H       1  UNL1        0.0654
     67 H           7.6200    1.5150    0.0000 H       1  UNL1        0.2922
     68 H           9.3828    4.5957    0.0000 H       1  UNL1        0.2921
     69 H          15.1268   -2.4057    0.0000 H       1  UNL1        0.2921
@<TRIPOS>BOND
     1     1    16    1
     2     1    23    1
     3     2    20    1
     4     2    24    1
     5    20     3    1
     6     3    25    1
     7    17     4    1
     8     4    55    1
     9    18     5    1
    10     5    56    1
    11    23     6    1
    12     6    27    1
    13    19     7    1
    14     7    57    1
    15    21     8    1
    16     8    58    1
    17    22     9    1
    18     9    59    1
    19    10    26    1
    20    10    60    1
    21    11    28   ar
    22    11    31   ar
    23    12    29    2
    24    13    33    1
    25    13    67    1
    26    14    38    1
    27    14    68    1
    28    15    41    1
    29    15    69    1
    30    16    17    1
    31    16    25    1
    32    16    42    1
    33    17    18    1
    34    17    43    1
    35    18    19    1
    36    18    44    1
    37    19    23    1
    38    19    45    1
    39    20    21    1
    40    20    46    1
    41    21    22    1
    42    21    47    1
    43    22    24    1
    44    22    48    1
    45    23    49    1
    46    24    26    1
    47    24    50    1
    48    25    51    1
    49    25    52    1
    50    26    53    1
    51    26    54    1
    52    27    28   ar
    53    27    29   ar
    54    28    32    1
    55    29    30   ar
    56    30    31   ar
    57    30    33   ar
    58    31    34   ar
    59    32    35   ar
    60    32    36   ar
    61    33    37   ar
    62    34    38   ar
    63    34    61    1
    64    35    39   ar
    65    35    62    1
    66    36    40   ar
    67    36    63    1
    68    37    38   ar
    69    37    64    1
    70    39    41   ar
    71    39    65    1
    72    40    41   ar
    73    40    66    1
