@<TRIPOS>MOLECULE
IMPHY017248
 19 19 0 0 0
SMALL
GASTEIGER

@<TRIPOS>ATOM
      1 N           3.7320   -0.5000    0.0000 N.ar    1  UNL1       -0.2566
      2 N           3.7320    1.5000    0.0000 N.ar    1  UNL1       -0.2569
      3 C           2.0000   -0.5000    0.0000 C.3     1  UNL1       -0.0115
      4 C           2.8660   -0.0000    0.0000 C.ar    1  UNL1        0.0619
      5 C           2.8660    1.0000    0.0000 C.ar    1  UNL1        0.0594
      6 C           2.0000   -1.5000    0.0000 C.3     1  UNL1       -0.0598
      7 C           2.0000    1.5000    0.0000 C.3     1  UNL1       -0.0206
      8 C           4.5981    0.0000    0.0000 C.ar    1  UNL1        0.0460
      9 C           4.5981    1.0000    0.0000 C.ar    1  UNL1        0.0460
     10 H           1.7880    0.0826    0.0000 H       1  UNL1        0.0326
     11 H           1.3894   -0.6077    0.0000 H       1  UNL1        0.0326
     12 H           1.3800   -1.5000    0.0000 H       1  UNL1        0.0233
     13 H           2.0000   -2.1200    0.0000 H       1  UNL1        0.0233
     14 H           2.6200   -1.5000    0.0000 H       1  UNL1        0.0233
     15 H           2.3100    2.0369    0.0000 H       1  UNL1        0.0293
     16 H           1.4631    1.8100    0.0000 H       1  UNL1        0.0293
     17 H           1.6900    0.9631    0.0000 H       1  UNL1        0.0293
     18 H           5.1350   -0.3100    0.0000 H       1  UNL1        0.0845
     19 H           5.1350    1.3100    0.0000 H       1  UNL1        0.0845
@<TRIPOS>BOND
     1     1     4   ar
     2     1     8   ar
     3     2     5   ar
     4     2     9   ar
     5     3     4    1
     6     3     6    1
     7     3    10    1
     8     3    11    1
     9     4     5   ar
    10     5     7    1
    11     6    12    1
    12     6    13    1
    13     6    14    1
    14     7    15    1
    15     7    16    1
    16     7    17    1
    17     8     9   ar
    18     8    18    1
    19     9    19    1
