@<TRIPOS>MOLECULE
IMPHY003360
 66 71 0 0 0
SMALL
GASTEIGER

@<TRIPOS>ATOM
      1 O          10.4543   -2.1343    0.0000 O.3     1  UNL1       -0.4609
      2 O           5.0540    2.2164    0.0000 O.3     1  UNL1       -0.4562
      3 O           6.8671   -1.9804    0.0000 O.2     1  UNL1       -0.4651
      4 O           4.1716    0.6382    0.0000 O.2     1  UNL1       -0.2505
      5 O           9.0564   -3.3426    0.0000 O.2     1  UNL1       -0.2502
      6 O           5.1350   -1.9804    0.0000 O.3     1  UNL1       -0.3313
      7 O           5.5628    5.2904    0.0000 O.2     1  UNL1       -0.4706
      8 O           6.8671   -3.9804    0.0000 O.3     1  UNL1       -0.3829
      9 O           5.1350   -4.9804    0.0000 O.3     1  UNL1       -0.3864
     10 O           3.4030   -3.9804    0.0000 O.3     1  UNL1       -0.3865
     11 O           2.5369   -2.4804    0.0000 O.3     1  UNL1       -0.3924
     12 C           6.8910    1.0887    0.0000 C.3     1  UNL1       -0.0084
     13 C           7.7787    0.5438    0.0000 C.3     1  UNL1       -0.0061
     14 C           5.9790    0.5854    0.0000 C.3     1  UNL1        0.0693
     15 C           7.7671   -0.4562    0.0000 C.2     1  UNL1       -0.0145
     16 C           8.7333    0.8418    0.0000 C.3     1  UNL1       -0.0085
     17 C           9.1614   -1.0005    0.0000 C.3     1  UNL1        0.0844
     18 C           6.9286    2.1731    0.0000 C.3     1  UNL1       -0.0046
     19 C          10.1106   -0.6859    0.0000 C.3     1  UNL1        0.1047
     20 C           5.9670   -0.4562    0.0000 C.3     1  UNL1        0.0185
     21 C          10.5267    0.4695    0.0000 C.3     1  UNL1        0.0011
     22 C           6.8671   -0.9805    0.0000 C.2     1  UNL1        0.1023
     23 C           7.5484    1.8422    0.0000 C.3     1  UNL1       -0.0581
     24 C           6.0040    2.7407    0.0000 C.3     1  UNL1        0.1315
     25 C           5.0415    1.1315    0.0000 C.2     1  UNL1        0.3117
     26 C           9.5051   -2.4489    0.0000 C.2     1  UNL1        0.3148
     27 C           6.0271    3.7405    0.0000 C.ar    1  UNL1        0.0304
     28 C           6.0010   -2.4804    0.0000 C.3     1  UNL1        0.2303
     29 C           6.0010   -3.4804    0.0000 C.3     1  UNL1        0.1454
     30 C           5.1350   -3.9804    0.0000 C.3     1  UNL1        0.1152
     31 C           6.8495    4.3094    0.0000 C.ar    1  UNL1       -0.0172
     32 C           5.2319    4.3468    0.0000 C.ar    1  UNL1        0.0983
     33 C           4.2690   -2.4804    0.0000 C.3     1  UNL1        0.1140
     34 C           4.2690   -3.4804    0.0000 C.3     1  UNL1        0.1120
     35 C           6.5625    5.2673    0.0000 C.ar    1  UNL1        0.0921
     36 C           3.4030   -1.9804    0.0000 C.3     1  UNL1        0.0731
     37 H           8.0786    1.3391    0.0000 H       1  UNL1        0.0354
     38 H           5.2397    0.1661    0.0000 H       1  UNL1        0.0423
     39 H           9.2484    1.1867    0.0000 H       1  UNL1        0.0307
     40 H           8.4656    1.4010    0.0000 H       1  UNL1        0.0307
     41 H           8.3545   -1.2679    0.0000 H       1  UNL1        0.0461
     42 H           7.5354    2.0459    0.0000 H       1  UNL1        0.0310
     43 H           7.1578    2.7492    0.0000 H       1  UNL1        0.0310
     44 H          10.9174   -0.4185    0.0000 H       1  UNL1        0.0734
     45 H           5.3574   -0.3430    0.0000 H       1  UNL1        0.0351
     46 H           5.7512   -1.0374    0.0000 H       1  UNL1        0.0351
     47 H          11.1461    0.4966    0.0000 H       1  UNL1        0.0312
     48 H          10.2666    1.0323    0.0000 H       1  UNL1        0.0312
     49 H           8.0156    1.4346    0.0000 H       1  UNL1        0.0235
     50 H           7.9560    2.3094    0.0000 H       1  UNL1        0.0235
     51 H           7.0812    2.2499    0.0000 H       1  UNL1        0.0235
     52 H           5.4737    3.0620    0.0000 H       1  UNL1        0.0786
     53 H           6.0010   -1.8604    0.0000 H       1  UNL1        0.1084
     54 H           6.0010   -4.1005    0.0000 H       1  UNL1        0.0683
     55 H           4.5981   -4.2904    0.0000 H       1  UNL1        0.0648
     56 H           7.4346    4.1042    0.0000 H       1  UNL1        0.0653
     57 H           4.6380    4.1689    0.0000 H       1  UNL1        0.1033
     58 H           4.2690   -1.8604    0.0000 H       1  UNL1        0.0647
     59 H           3.7320   -3.1705    0.0000 H       1  UNL1        0.0647
     60 H           6.9385    5.7604    0.0000 H       1  UNL1        0.1029
     61 H           3.8015   -1.5055    0.0000 H       1  UNL1        0.0584
     62 H           3.0044   -1.5055    0.0000 H       1  UNL1        0.0584
     63 H           6.8671   -4.6005    0.0000 H       1  UNL1        0.2102
     64 H           4.5981   -5.2904    0.0000 H       1  UNL1        0.2100
     65 H           3.4030   -4.6005    0.0000 H       1  UNL1        0.2100
     66 H           2.0000   -2.1705    0.0000 H       1  UNL1        0.2095
@<TRIPOS>BOND
     1     1    19    1
     2     1    26    1
     3     2    24    1
     4     2    25    1
     5     3    22    1
     6    28     3    1
     7     4    25    2
     8     5    26    2
     9     6    28    1
    10     6    33    1
    11     7    32   ar
    12     7    35   ar
    13    29     8    1
    14     8    63    1
    15    30     9    1
    16     9    64    1
    17    34    10    1
    18    10    65    1
    19    11    36    1
    20    11    66    1
    21    12    13    1
    22    12    14    1
    23    12    18    1
    24    12    23    1
    25    13    15    1
    26    13    16    1
    27    13    37    1
    28    14    20    1
    29    14    25    1
    30    14    38    1
    31    15    17    1
    32    15    22    2
    33    16    19    1
    34    16    39    1
    35    16    40    1
    36    17    21    1
    37    17    26    1
    38    17    41    1
    39    18    24    1
    40    18    42    1
    41    18    43    1
    42    19    21    1
    43    19    44    1
    44    20    22    1
    45    20    45    1
    46    20    46    1
    47    21    47    1
    48    21    48    1
    49    23    49    1
    50    23    50    1
    51    23    51    1
    52    24    27    1
    53    24    52    1
    54    27    31   ar
    55    27    32   ar
    56    28    29    1
    57    28    53    1
    58    29    30    1
    59    29    54    1
    60    30    34    1
    61    30    55    1
    62    31    35   ar
    63    31    56    1
    64    32    57    1
    65    33    34    1
    66    33    36    1
    67    33    58    1
    68    34    59    1
    69    35    60    1
    70    36    61    1
    71    36    62    1
