@<TRIPOS>MOLECULE
IMPHY010512
 41 43 0 0 0
SMALL
GASTEIGER

@<TRIPOS>ATOM
      1 O           5.1482    2.1688    0.0000 O.3     1  UNL1       -0.4608
      2 O           5.7812   -1.0396    0.0000 O.3     1  UNL1       -0.3904
      3 O           4.6840   -2.5270    0.0000 O.2     1  UNL1       -0.2967
      4 O           6.8881    2.5270    0.0000 O.2     1  UNL1       -0.2505
      5 C           4.0984   -0.8500    0.0000 C.3     1  UNL1        0.0554
      6 C           3.1974   -0.4161    0.0000 C.3     1  UNL1       -0.0235
      7 C           5.2219    0.5588    0.0000 C.3     1  UNL1        0.0357
      8 C           4.9994   -0.4161    0.0000 C.3     1  UNL1        0.0744
      9 C           2.9749    0.5588    0.0000 C.3     1  UNL1       -0.0367
     10 C           4.5984    1.3406    0.0000 C.3     1  UNL1        0.1093
     11 C           3.5984    1.3406    0.0000 C.3     1  UNL1       -0.0124
     12 C           2.5124   -1.1364    0.0000 C.3     1  UNL1       -0.0423
     13 C           3.9624   -1.8347    0.0000 C.2     1  UNL1        0.1419
     14 C           6.1517    0.9105    0.0000 C.3     1  UNL1        0.0622
     15 C           2.9842   -2.0114    0.0000 C.3     1  UNL1        0.0068
     16 C           4.9994   -1.2839    0.0000 C.3     1  UNL1       -0.0502
     17 C           2.0000    0.7813    0.0000 C.3     1  UNL1       -0.0620
     18 C           6.1062    1.9036    0.0000 C.2     1  UNL1        0.3107
     19 C           6.9872    0.3611    0.0000 C.3     1  UNL1       -0.0518
     20 H           2.3778   -0.1911    0.0000 H       1  UNL1        0.0314
     21 H           5.8627    0.0004    0.0000 H       1  UNL1        0.0370
     22 H           4.9300   -1.0322    0.0000 H       1  UNL1        0.0607
     23 H           2.7702    1.1440    0.0000 H       1  UNL1        0.0302
     24 H           4.1966    2.0897    0.0000 H       1  UNL1        0.0738
     25 H           3.7364    1.9451    0.0000 H       1  UNL1        0.0304
     26 H           3.0398    1.6096    0.0000 H       1  UNL1        0.0304
     27 H           2.1105   -0.6643    0.0000 H       1  UNL1        0.0272
     28 H           2.0006   -1.4864    0.0000 H       1  UNL1        0.0272
     29 H           6.6905    1.2172    0.0000 H       1  UNL1        0.0415
     30 H           2.4105   -2.2467    0.0000 H       1  UNL1        0.0342
     31 H           3.1579   -2.6066    0.0000 H       1  UNL1        0.0342
     32 H           4.7304   -1.8425    0.0000 H       1  UNL1        0.0240
     33 H           5.5580   -1.5529    0.0000 H       1  UNL1        0.0240
     34 H           5.2684   -0.7253    0.0000 H       1  UNL1        0.0240
     35 H           2.1380    1.3858    0.0000 H       1  UNL1        0.0233
     36 H           1.3955    0.9193    0.0000 H       1  UNL1        0.0233
     37 H           1.8620    0.1769    0.0000 H       1  UNL1        0.0233
     38 H           6.3584   -0.8131    0.0000 H       1  UNL1        0.2098
     39 H           6.6466   -0.1570    0.0000 H       1  UNL1        0.0238
     40 H           7.5052    0.0204    0.0000 H       1  UNL1        0.0238
     41 H           7.3279    0.8791    0.0000 H       1  UNL1        0.0238
@<TRIPOS>BOND
     1     1    10    1
     2     1    18    1
     3     8     2    1
     4     2    38    1
     5     3    13    2
     6     4    18    2
     7     5     6    1
     8     5     8    1
     9     5    13    1
    10     5    16    1
    11     6     9    1
    12     6    12    1
    13     6    20    1
    14     7     8    1
    15     7    10    1
    16     7    14    1
    17     7    21    1
    18     8    22    1
    19     9    11    1
    20     9    17    1
    21     9    23    1
    22    10    11    1
    23    10    24    1
    24    11    25    1
    25    11    26    1
    26    12    15    1
    27    12    27    1
    28    12    28    1
    29    13    15    1
    30    14    18    1
    31    14    19    1
    32    14    29    1
    33    15    30    1
    34    15    31    1
    35    16    32    1
    36    16    33    1
    37    16    34    1
    38    17    35    1
    39    17    36    1
    40    17    37    1
    41    19    39    1
    42    19    40    1
    43    19    41    1
