@<TRIPOS>MOLECULE
IMPHY000164
 62 64 0 0 0
SMALL
GASTEIGER

@<TRIPOS>ATOM
      1 O           8.0901   -0.1897    0.0000 O.3     1  UNL1       -0.4826
      2 O           4.5981   -0.1550    0.0000 O.3     1  UNL1       -0.4943
      3 O           6.3301    2.8450    0.0000 O.3     1  UNL1       -0.5055
      4 O           8.0785    2.8796    0.0000 O.2     1  UNL1       -0.2917
      5 O          10.7166   -2.6825    0.0000 O.3     1  UNL1       -0.5033
      6 O          12.4525   -1.6892    0.0000 O.3     1  UNL1       -0.5033
      7 C           8.9962    0.3242    0.0000 C.3     1  UNL1        0.1323
      8 C           7.1962    0.3450    0.0000 C.ar    1  UNL1        0.1423
      9 C           8.9962    1.3658    0.0000 C.3     1  UNL1        0.0520
     10 C           7.1962    1.3450    0.0000 C.ar    1  UNL1        0.1012
     11 C           6.3301   -0.1550    0.0000 C.ar    1  UNL1        0.0408
     12 C           8.0901    1.8797    0.0000 C.2     1  UNL1        0.1740
     13 C           5.4641    1.3450    0.0000 C.ar    1  UNL1        0.0405
     14 C           6.3301    1.8450    0.0000 C.ar    1  UNL1        0.1378
     15 C           5.4641    0.3450    0.0000 C.ar    1  UNL1        0.1340
     16 C           9.8602   -0.1792    0.0000 C.ar    1  UNL1       -0.0033
     17 C           6.3301   -1.1550    0.0000 C.3     1  UNL1       -0.0023
     18 C           4.5981    1.8450    0.0000 C.3     1  UNL1       -0.0023
     19 C           9.8564   -1.1791    0.0000 C.ar    1  UNL1       -0.0099
     20 C          10.7282    0.3175    0.0000 C.ar    1  UNL1       -0.0514
     21 C           5.4641   -1.6550    0.0000 C.2     1  UNL1       -0.0807
     22 C           3.7320    1.3450    0.0000 C.2     1  UNL1       -0.0807
     23 C          10.7205   -1.6825    0.0000 C.ar    1  UNL1        0.1586
     24 C          11.5923   -0.1858    0.0000 C.ar    1  UNL1       -0.0162
     25 C           5.4641   -2.6550    0.0000 C.2     1  UNL1       -0.0793
     26 C          11.5884   -1.1858    0.0000 C.ar    1  UNL1        0.1582
     27 C           2.8660    1.8450    0.0000 C.2     1  UNL1       -0.0793
     28 C           3.7320    0.3450    0.0000 C.3     1  UNL1        0.0788
     29 C           4.5981   -3.1550    0.0000 C.3     1  UNL1       -0.0440
     30 C           6.3301   -3.1550    0.0000 C.3     1  UNL1       -0.0440
     31 C           2.0000    1.3450    0.0000 C.3     1  UNL1       -0.0440
     32 C           2.8660    2.8450    0.0000 C.3     1  UNL1       -0.0440
     33 H           8.9913   -0.5258    0.0000 H       1  UNL1        0.0789
     34 H           9.6070    1.2597    0.0000 H       1  UNL1        0.0385
     35 H           9.2052    1.9495    0.0000 H       1  UNL1        0.0385
     36 H           6.5422   -1.7376    0.0000 H       1  UNL1        0.0358
     37 H           6.9407   -1.0473    0.0000 H       1  UNL1        0.0358
     38 H           4.9966    2.3200    0.0000 H       1  UNL1        0.0358
     39 H           4.1996    2.3200    0.0000 H       1  UNL1        0.0358
     40 H           9.3183   -1.4871    0.0000 H       1  UNL1        0.0659
     41 H          10.7306    0.9375    0.0000 H       1  UNL1        0.0623
     42 H           4.9272   -1.3450    0.0000 H       1  UNL1        0.0575
     43 H           3.7320    0.7250    0.0000 H       1  UNL1        0.0575
     44 H           5.7932    3.1550    0.0000 H       1  UNL1        0.2922
     45 H          12.1304    0.1221    0.0000 H       1  UNL1        0.0655
     46 H           4.0420    0.8819    0.0000 H       1  UNL1        0.0660
     47 H           3.1951    0.6550    0.0000 H       1  UNL1        0.0660
     48 H           3.4220   -0.1919    0.0000 H       1  UNL1        0.0660
     49 H           6.0201   -3.6919    0.0000 H       1  UNL1        0.0274
     50 H           6.8671   -3.4650    0.0000 H       1  UNL1        0.0274
     51 H           6.6401   -2.6181    0.0000 H       1  UNL1        0.0274
     52 H           4.2881   -2.6181    0.0000 H       1  UNL1        0.0274
     53 H           4.0611   -3.4650    0.0000 H       1  UNL1        0.0274
     54 H           4.9081   -3.6919    0.0000 H       1  UNL1        0.0274
     55 H           3.4860    2.8450    0.0000 H       1  UNL1        0.0274
     56 H           2.8660    3.4650    0.0000 H       1  UNL1        0.0274
     57 H           2.2460    2.8450    0.0000 H       1  UNL1        0.0274
     58 H           1.6900    1.8819    0.0000 H       1  UNL1        0.0274
     59 H           1.4631    1.0350    0.0000 H       1  UNL1        0.0274
     60 H           2.3100    0.8081    0.0000 H       1  UNL1        0.0274
     61 H          11.2524   -2.9945    0.0000 H       1  UNL1        0.2923
     62 H          12.9907   -1.3812    0.0000 H       1  UNL1        0.2923
@<TRIPOS>BOND
     1     1     7    1
     2     1     8    1
     3     2    15    1
     4     2    28    1
     5     3    14    1
     6     3    44    1
     7     4    12    2
     8     5    23    1
     9     5    61    1
    10     6    26    1
    11     6    62    1
    12     7     9    1
    13     7    16    1
    14     7    33    1
    15     8    10   ar
    16     8    11   ar
    17     9    12    1
    18     9    34    1
    19     9    35    1
    20    10    12    1
    21    10    14   ar
    22    11    15   ar
    23    11    17    1
    24    13    14   ar
    25    13    15   ar
    26    13    18    1
    27    16    19   ar
    28    16    20   ar
    29    17    21    1
    30    17    36    1
    31    17    37    1
    32    18    22    1
    33    18    38    1
    34    18    39    1
    35    19    23   ar
    36    19    40    1
    37    20    24   ar
    38    20    41    1
    39    21    25    2
    40    21    42    1
    41    22    27    2
    42    22    43    1
    43    23    26   ar
    44    24    26   ar
    45    24    45    1
    46    25    29    1
    47    25    30    1
    48    27    31    1
    49    27    32    1
    50    28    46    1
    51    28    47    1
    52    28    48    1
    53    29    52    1
    54    29    53    1
    55    29    54    1
    56    30    49    1
    57    30    50    1
    58    30    51    1
    59    31    58    1
    60    31    59    1
    61    31    60    1
    62    32    55    1
    63    32    56    1
    64    32    57    1
