@<TRIPOS>MOLECULE
IMPHY016769
 21 22 0 0 0
SMALL
GASTEIGER

@<TRIPOS>ATOM
      1 N           2.8660    1.2500    0.0000 N.pl3   1  UNL1       -0.3195
      2 N           4.6783    0.0547    0.0000 N.ar    1  UNL1       -0.3404
      3 N           2.0000   -0.2500    0.0000 N.ar    1  UNL1       -0.2185
      4 N           4.6783   -1.5547    0.0000 N.ar    1  UNL1       -0.2164
      5 N           2.8660   -1.7500    0.0000 N.ar    1  UNL1       -0.2144
      6 C           3.7320   -0.2500    0.0000 C.ar    1  UNL1        0.1255
      7 C           2.8660    0.2500    0.0000 C.ar    1  UNL1        0.1498
      8 C           3.7320   -1.2500    0.0000 C.ar    1  UNL1        0.1825
      9 C           2.0000    1.7500    0.0000 C.3     1  UNL1        0.0017
     10 C           3.7320    1.7500    0.0000 C.3     1  UNL1        0.0017
     11 C           5.2619   -0.7500    0.0000 C.ar    1  UNL1        0.0963
     12 C           2.0000   -1.2500    0.0000 C.ar    1  UNL1        0.1205
     13 H           4.8709    0.6441    0.0000 H       1  UNL1        0.1669
     14 H           2.3100    2.2869    0.0000 H       1  UNL1        0.0428
     15 H           1.4631    2.0600    0.0000 H       1  UNL1        0.0428
     16 H           1.6900    1.2131    0.0000 H       1  UNL1        0.0428
     17 H           4.0420    1.2131    0.0000 H       1  UNL1        0.0428
     18 H           4.2690    2.0600    0.0000 H       1  UNL1        0.0428
     19 H           3.4220    2.2869    0.0000 H       1  UNL1        0.0428
     20 H           5.8819   -0.7500    0.0000 H       1  UNL1        0.1027
     21 H           1.4631   -1.5600    0.0000 H       1  UNL1        0.1048
@<TRIPOS>BOND
     1     1     7    1
     2     1     9    1
     3     1    10    1
     4     2     6   ar
     5     2    11   ar
     6     2    13    1
     7     3     7   ar
     8     3    12   ar
     9     4     8   ar
    10     4    11   ar
    11     5     8   ar
    12     5    12   ar
    13     6     7   ar
    14     6     8   ar
    15     9    14    1
    16     9    15    1
    17     9    16    1
    18    10    17    1
    19    10    18    1
    20    10    19    1
    21    11    20    1
    22    12    21    1
