@<TRIPOS>MOLECULE
IMPHY014287
 67 71 0 0 0
SMALL
GASTEIGER

@<TRIPOS>ATOM
      1 O           9.1654   -0.3792    0.0000 O.3     1  UNL1       -0.4510
      2 O           8.7497   -1.2190    0.0000 O.3     1  UNL1       -0.4512
      3 O          10.0830    2.1763    0.0000 O.3     1  UNL1       -0.3832
      4 O           6.9970   -0.7321    0.0000 O.3     1  UNL1       -0.3842
      5 O           6.3941    1.1749    0.0000 O.3     1  UNL1       -0.4528
      6 O          11.8314    2.1417    0.0000 O.3     1  UNL1       -0.5030
      7 O           9.9092   -1.8798    0.0000 O.2     1  UNL1       -0.2449
      8 O           7.7442    2.6505    0.0000 O.3     1  UNL1       -0.3913
      9 O          13.5635   -0.8583    0.0000 O.3     1  UNL1       -0.5028
     10 O          13.5635    1.1417    0.0000 O.3     1  UNL1       -0.5009
     11 O           8.9342   -2.8399    0.0000 O.2     1  UNL1       -0.2449
     12 O          13.0241   -1.9112    0.0000 O.3     1  UNL1       -0.5028
     13 O          12.8264   -3.8434    0.0000 O.3     1  UNL1       -0.5009
     14 O          11.0641   -4.6601    0.0000 O.3     1  UNL1       -0.5032
     15 O           6.7678    2.8662    0.0000 O.2     1  UNL1       -0.2449
     16 O           2.7897    1.0843    0.0000 O.3     1  UNL1       -0.5032
     17 O           3.5370    4.4668    0.0000 O.3     1  UNL1       -0.5032
     18 O           2.1869    2.9913    0.0000 O.3     1  UNL1       -0.5009
     19 C           9.1654    0.6625    0.0000 C.3     1  UNL1        0.1725
     20 C           8.6485   -0.2100    0.0000 C.3     1  UNL1        0.1720
     21 C          10.0714    1.1763    0.0000 C.3     1  UNL1        0.1249
     22 C           7.6720    0.0057    0.0000 C.3     1  UNL1        0.1346
     23 C          10.9654    0.6417    0.0000 C.ar    1  UNL1        0.0444
     24 C          10.9654   -0.3583    0.0000 C.ar    1  UNL1        0.0798
     25 C           7.3706    0.9592    0.0000 C.3     1  UNL1        0.1555
     26 C          11.8314   -0.8583    0.0000 C.ar    1  UNL1        0.0462
     27 C          10.0714   -0.8930    0.0000 C.2     1  UNL1        0.3408
     28 C          11.8314    1.1417    0.0000 C.ar    1  UNL1        0.1687
     29 C          11.3435   -1.7474    0.0000 C.ar    1  UNL1        0.0458
     30 C           8.0456    1.6970    0.0000 C.3     1  UNL1        0.0838
     31 C          12.6974   -0.3583    0.0000 C.ar    1  UNL1        0.1708
     32 C          10.4234   -2.1737    0.0000 C.ar    1  UNL1        0.0740
     33 C          12.6974    0.6417    0.0000 C.ar    1  UNL1        0.2016
     34 C           9.4297   -1.9713    0.0000 C.2     1  UNL1        0.3405
     35 C          12.1092   -2.3148    0.0000 C.ar    1  UNL1        0.1708
     36 C          10.3615   -3.1247    0.0000 C.ar    1  UNL1       -0.0017
     37 C          12.0122   -3.2629    0.0000 C.ar    1  UNL1        0.2012
     38 C          11.1475   -3.6636    0.0000 C.ar    1  UNL1        0.1628
     39 C           6.0927    2.1284    0.0000 C.2     1  UNL1        0.3398
     40 C           5.1162    2.3441    0.0000 C.ar    1  UNL1        0.0661
     41 C           4.8148    3.2976    0.0000 C.ar    1  UNL1       -0.0023
     42 C           4.4412    1.6064    0.0000 C.ar    1  UNL1       -0.0023
     43 C           3.4648    1.8221    0.0000 C.ar    1  UNL1        0.1628
     44 C           3.8384    3.5133    0.0000 C.ar    1  UNL1        0.1628
     45 C           3.1633    2.7756    0.0000 C.ar    1  UNL1        0.2006
     46 H           8.7312    1.1050    0.0000 H       1  UNL1        0.0803
     47 H           9.2539   -0.3437    0.0000 H       1  UNL1        0.0800
     48 H          10.6125    1.4790    0.0000 H       1  UNL1        0.0683
     49 H           7.8589   -0.5854    0.0000 H       1  UNL1        0.0670
     50 H           6.9521    0.5018    0.0000 H       1  UNL1        0.0785
     51 H           8.4234    1.2054    0.0000 H       1  UNL1        0.0595
     52 H           8.5954    1.9837    0.0000 H       1  UNL1        0.0595
     53 H           9.5497    2.4924    0.0000 H       1  UNL1        0.2104
     54 H           6.3916   -0.5983    0.0000 H       1  UNL1        0.2101
     55 H           9.8038   -3.3958    0.0000 H       1  UNL1        0.0664
     56 H          12.3683    2.4517    0.0000 H       1  UNL1        0.2923
     57 H           8.1627    3.1079    0.0000 H       1  UNL1        0.2096
     58 H          14.1004   -0.5483    0.0000 H       1  UNL1        0.2923
     59 H          13.5635    1.7617    0.0000 H       1  UNL1        0.2924
     60 H          13.5244   -2.2773    0.0000 H       1  UNL1        0.2923
     61 H          12.7671   -4.4606    0.0000 H       1  UNL1        0.2924
     62 H          10.5032   -4.9242    0.0000 H       1  UNL1        0.2923
     63 H           5.2334    3.7550    0.0000 H       1  UNL1        0.0663
     64 H           4.6281    1.0152    0.0000 H       1  UNL1        0.0663
     65 H           2.1843    1.2180    0.0000 H       1  UNL1        0.2923
     66 H           3.9555    4.9242    0.0000 H       1  UNL1        0.2923
     67 H           2.0000    3.5824    0.0000 H       1  UNL1        0.2924
@<TRIPOS>BOND
     1     1    19    1
     2     1    27    1
     3     2    20    1
     4     2    34    1
     5     3    21    1
     6     3    53    1
     7     4    22    1
     8     4    54    1
     9     5    25    1
    10     5    39    1
    11     6    28    1
    12     6    56    1
    13     7    27    2
    14     8    30    1
    15     8    57    1
    16     9    31    1
    17     9    58    1
    18    10    33    1
    19    10    59    1
    20    11    34    2
    21    12    35    1
    22    12    60    1
    23    13    37    1
    24    13    61    1
    25    14    38    1
    26    14    62    1
    27    15    39    2
    28    16    43    1
    29    16    65    1
    30    17    44    1
    31    17    66    1
    32    18    45    1
    33    18    67    1
    34    19    20    1
    35    19    21    1
    36    19    46    1
    37    20    22    1
    38    20    47    1
    39    21    23    1
    40    21    48    1
    41    22    25    1
    42    22    49    1
    43    23    24   ar
    44    23    28   ar
    45    24    26   ar
    46    24    27    1
    47    25    30    1
    48    25    50    1
    49    26    29    1
    50    26    31   ar
    51    28    33   ar
    52    29    32   ar
    53    29    35   ar
    54    30    51    1
    55    30    52    1
    56    31    33   ar
    57    32    34    1
    58    32    36   ar
    59    35    37   ar
    60    36    38   ar
    61    36    55    1
    62    37    38   ar
    63    39    40    1
    64    40    41   ar
    65    40    42   ar
    66    41    44   ar
    67    41    63    1
    68    42    43   ar
    69    42    64    1
    70    43    45   ar
    71    44    45   ar
