@<TRIPOS>MOLECULE
IMPHY009050
 61 67 0 0 0
SMALL
GASTEIGER

@<TRIPOS>ATOM
      1 O           5.5717    1.3700    0.0000 O.3     1  UNL1       -0.4890
      2 O          10.9128    2.0831    0.0000 O.3     1  UNL1       -0.4929
      3 O           2.6048   -2.4591    0.0000 O.3     1  UNL1       -0.5047
      4 O          12.0679   -2.6674    0.0000 O.3     1  UNL1       -0.5047
      5 N           7.1679   -0.7401    0.0000 N.ar    1  UNL1       -0.1877
      6 N           4.7149   -1.8575    0.0000 N.ar    1  UNL1       -0.3464
      7 N          10.3726   -1.2569    0.0000 N.ar    1  UNL1       -0.3496
      8 N           8.5210    0.7981    0.0000 N.ar    1  UNL1       -0.2475
      9 C           8.1900   -0.9409    0.0000 C.3     1  UNL1        0.2045
     10 C           8.5195   -1.9290    0.0000 C.3     1  UNL1        0.0164
     11 C           6.4988   -1.4832    0.0000 C.ar    1  UNL1        0.2087
     12 C           7.8225   -2.7031    0.0000 C.3     1  UNL1       -0.0370
     13 C           6.8054   -2.4787    0.0000 C.3     1  UNL1        0.0348
     14 C           5.5206   -1.2753    0.0000 C.ar    1  UNL1        0.1190
     15 C           8.8505   -0.1901    0.0000 C.ar    1  UNL1        0.1330
     16 C           5.2116   -0.3243    0.0000 C.ar    1  UNL1        0.0611
     17 C           6.8589    0.2110    0.0000 C.ar    1  UNL1        0.2146
     18 C           9.8726   -0.3909    0.0000 C.ar    1  UNL1        0.0792
     19 C           5.8808    0.4189    0.0000 C.ar    1  UNL1        0.1935
     20 C           4.2175   -0.3268    0.0000 C.ar    1  UNL1        0.0149
     21 C           3.9112   -1.2725    0.0000 C.ar    1  UNL1        0.0898
     22 C          10.5417    0.3522    0.0000 C.ar    1  UNL1        0.0526
     23 C          11.4553   -0.0545    0.0000 C.ar    1  UNL1        0.0146
     24 C          11.3507   -1.0490    0.0000 C.ar    1  UNL1        0.0896
     25 C          10.2351    1.3477    0.0000 C.ar    1  UNL1        0.1478
     26 C           3.5360    0.4527    0.0000 C.ar    1  UNL1       -0.0517
     27 C           2.9020   -1.5043    0.0000 C.ar    1  UNL1        0.1407
     28 C           9.2180    1.5721    0.0000 C.ar    1  UNL1        0.0705
     29 C          12.4002    0.3838    0.0000 C.ar    1  UNL1       -0.0517
     30 C          12.1839   -1.6742    0.0000 C.ar    1  UNL1        0.1407
     31 C           2.5217    0.2443    0.0000 C.ar    1  UNL1       -0.0576
     32 C           2.2025   -0.7407    0.0000 C.ar    1  UNL1       -0.0181
     33 C          13.2476   -0.2220    0.0000 C.ar    1  UNL1       -0.0576
     34 C          13.1387   -1.2579    0.0000 C.ar    1  UNL1       -0.0181
     35 C           6.2409    2.1131    0.0000 C.3     1  UNL1        0.0791
     36 C          10.6148    3.0377    0.0000 C.3     1  UNL1        0.0789
     37 H           9.0231   -1.1096    0.0000 H       1  UNL1        0.1139
     38 H           8.9025   -2.4166    0.0000 H       1  UNL1        0.0334
     39 H           9.0654   -1.6352    0.0000 H       1  UNL1        0.0334
     40 H           7.5873   -3.2768    0.0000 H       1  UNL1        0.0273
     41 H           8.3475   -3.0330    0.0000 H       1  UNL1        0.0273
     42 H           6.1903   -2.5571    0.0000 H       1  UNL1        0.0373
     43 H           6.7774   -3.0981    0.0000 H       1  UNL1        0.0373
     44 H           7.2738    0.6717    0.0000 H       1  UNL1        0.1416
     45 H           4.7138   -2.4775    0.0000 H       1  UNL1        0.1662
     46 H          10.1204   -1.8233    0.0000 H       1  UNL1        0.1661
     47 H           3.7338    1.0402    0.0000 H       1  UNL1        0.0624
     48 H           9.0287    2.1625    0.0000 H       1  UNL1        0.0867
     49 H          12.4579    1.0011    0.0000 H       1  UNL1        0.0624
     50 H           2.1082    0.7063    0.0000 H       1  UNL1        0.0619
     51 H           1.5967   -0.8725    0.0000 H       1  UNL1        0.0655
     52 H          13.8130    0.0324    0.0000 H       1  UNL1        0.0619
     53 H          13.6389   -1.6242    0.0000 H       1  UNL1        0.0655
     54 H           6.7016    1.6982    0.0000 H       1  UNL1        0.0660
     55 H           6.6557    2.5738    0.0000 H       1  UNL1        0.0660
     56 H           5.7801    2.5280    0.0000 H       1  UNL1        0.0660
     57 H           2.0000   -2.5955    0.0000 H       1  UNL1        0.2922
     58 H          12.5652   -3.0377    0.0000 H       1  UNL1        0.2922
     59 H          11.2066    3.2224    0.0000 H       1  UNL1        0.0660
     60 H          10.4301    3.6295    0.0000 H       1  UNL1        0.0660
     61 H          10.0230    2.8529    0.0000 H       1  UNL1        0.0660
@<TRIPOS>UNITY_ATOM_ATTR
5 1
charge 1
@<TRIPOS>BOND
     1     1    19    1
     2     1    35    1
     3     2    25    1
     4     2    36    1
     5     3    27    1
     6     3    57    1
     7     4    30    1
     8     4    58    1
     9     5     9    1
    10     5    11   ar
    11     5    17   ar
    12     6    14   ar
    13     6    21   ar
    14     6    45    1
    15     7    18   ar
    16     7    24   ar
    17     7    46    1
    18     8    15   ar
    19     8    28   ar
    20     9    10    1
    21     9    15    1
    22     9    37    1
    23    10    12    1
    24    10    38    1
    25    10    39    1
    26    11    13    1
    27    11    14   ar
    28    12    13    1
    29    12    40    1
    30    12    41    1
    31    13    42    1
    32    13    43    1
    33    14    16   ar
    34    15    18   ar
    35    16    19   ar
    36    16    20   ar
    37    17    19   ar
    38    17    44    1
    39    18    22   ar
    40    20    21   ar
    41    20    26   ar
    42    21    27   ar
    43    22    23   ar
    44    22    25   ar
    45    23    24   ar
    46    23    29   ar
    47    24    30   ar
    48    25    28   ar
    49    26    31   ar
    50    26    47    1
    51    27    32   ar
    52    28    48    1
    53    29    33   ar
    54    29    49    1
    55    30    34   ar
    56    31    32   ar
    57    31    50    1
    58    32    51    1
    59    33    34   ar
    60    33    52    1
    61    34    53    1
    62    35    54    1
    63    35    55    1
    64    35    56    1
    65    36    59    1
    66    36    60    1
    67    36    61    1
