@<TRIPOS>MOLECULE
IMPHY002390
 34 36 0 0 0
SMALL
GASTEIGER

@<TRIPOS>ATOM
      1 C           6.0349    3.6295    0.0000 C.3     1  UNL1        0.2370
      2 C           4.3206    4.2295    0.0000 C.3     1  UNL1        0.2251
      3 C           7.5965    3.6295    0.0000 C.3     1  UNL1        0.2530
      4 O           6.0349    4.6232    0.0000 O.3     1  UNL1       -0.4436
      5 C           5.7536    5.1215    0.0000 C.3     1  UNL1        0.1954
      6 O           4.3206    3.3295    0.0000 O.3     1  UNL1       -0.2164
      7 C           8.4536    4.4250    0.0000 C.3     1  UNL1        0.3035
      8 O           7.5965    2.8313    0.0000 O.3     1  UNL1       -0.2136
      9 C           4.7893    2.9813    0.0000 C.2     1  UNL1        0.3415
     10 O           7.3608    5.1215    0.0000 O.3     1  UNL1       -0.3224
     11 C           5.7536    5.9197    0.0000 C.3     1  UNL1        0.2409
     12 O           9.3750    4.4250    0.0000 O.3     1  UNL1       -0.1869
     13 C           4.7893    2.2875    0.0000 C.ar    1  UNL1        0.0822
     14 O           5.6465    2.5339    0.0000 O.2     1  UNL1       -0.2449
     15 O           4.6206    6.2679    0.0000 O.3     1  UNL1       -0.4427
     16 C           4.0581    1.8670    0.0000 C.ar    1  UNL1        0.0520
     17 C           5.5259    1.8670    0.0000 C.ar    1  UNL1        0.0520
     18 C           3.1206    5.4697    0.0000 C.2     1  UNL1        0.3415
     19 C           4.0581    1.0179    0.0000 C.ar    1  UNL1        0.2377
     20 C           5.5259    1.0179    0.0000 C.ar    1  UNL1        0.2377
     21 C           2.0116    6.0188    0.0000 C.ar    1  UNL1        0.0822
     22 O           3.1206    4.8215    0.0000 O.2     1  UNL1       -0.2449
     23 C           4.7893    0.5946    0.0000 C.ar    1  UNL1        0.2727
     24 O           3.3563    0.6911    0.0000 O.3     1  UNL1       -0.2830
     25 O           6.0750    0.5920    0.0000 O.3     1  UNL1       -0.2830
     26 C           2.0116    6.7634    0.0000 C.ar    1  UNL1        0.0520
     27 C           1.3607    5.6411    0.0000 C.ar    1  UNL1        0.0520
     28 O           4.7706    0.0000    0.0000 O.3     1  UNL1       -0.2797
     29 C           1.3607    7.1384    0.0000 C.ar    1  UNL1        0.2377
     30 C           0.7179    6.0188    0.0000 C.ar    1  UNL1        0.2377
     31 C           0.7179    6.7634    0.0000 C.ar    1  UNL1        0.2727
     32 O           1.3688    7.9045    0.0000 O.3     1  UNL1       -0.2830
     33 O           0.0000    5.6679    0.0000 O.3     1  UNL1       -0.2830
     34 O           0.0402    7.1116    0.0000 O.3     1  UNL1       -0.2797
@<TRIPOS>BOND
     1     1     2    1
     2     1     3    1
     3     1     4    1
     4     2     5    1
     5     2     6    1
     6     3     7    1
     7     3     8    1
     8     4     9    1
     9     5    10    1
    10     5    11    1
    11     7    10    1
    12     7    12    1
    13     9    13    1
    14     9    14    2
    15    11    15    1
    16    13    16   ar
    17    13    17   ar
    18    15    18    1
    19    16    19   ar
    20    17    20   ar
    21    18    21    1
    22    18    22    2
    23    19    23   ar
    24    19    24    1
    25    20    23   ar
    26    20    25    1
    27    21    26   ar
    28    21    27   ar
    29    23    28    1
    30    26    29   ar
    31    27    30   ar
    32    29    31   ar
    33    29    32    1
    34    30    31   ar
    35    30    33    1
    36    31    34    1
