@<TRIPOS>MOLECULE
IMPHY008551
 68 72 0 0 0
SMALL
GASTEIGER

@<TRIPOS>ATOM
      1 O          11.8342   -1.0265    0.0000 O.3     1  UNL1       -0.4811
      2 O           8.2982   -0.9986    0.0000 O.3     1  UNL1       -0.4821
      3 O           3.9080    0.5356    0.0000 O.3     1  UNL1       -0.4815
      4 O          10.0582   -4.0333    0.0000 O.3     1  UNL1       -0.5058
      5 O           8.3098   -4.0679    0.0000 O.2     1  UNL1       -0.2917
      6 O           7.3999    0.4875    0.0000 O.3     1  UNL1       -0.5063
      7 C          11.8423    0.0151    0.0000 C.3     1  UNL1        0.1266
      8 C           7.3922   -1.5125    0.0000 C.3     1  UNL1        0.1356
      9 C          12.3456    0.8792    0.0000 C.3     1  UNL1       -0.0060
     10 C          10.0582   -1.0333    0.0000 C.ar    1  UNL1        0.0591
     11 C           9.1922   -1.5333    0.0000 C.ar    1  UNL1        0.1460
     12 C           7.3922   -2.5541    0.0000 C.3     1  UNL1        0.0521
     13 C          10.9242   -1.5333    0.0000 C.ar    1  UNL1        0.1359
     14 C          10.9402    0.5360    0.0000 C.2     1  UNL1       -0.0405
     15 C           9.1922   -2.5333    0.0000 C.ar    1  UNL1        0.1012
     16 C           6.5281   -1.0092    0.0000 C.ar    1  UNL1        0.0353
     17 C          12.8422    0.0113    0.0000 C.3     1  UNL1       -0.0212
     18 C          10.0421    0.0082    0.0000 C.2     1  UNL1       -0.0478
     19 C           8.2982   -3.0680    0.0000 C.2     1  UNL1        0.1740
     20 C          11.8489    1.7472    0.0000 C.3     1  UNL1       -0.0306
     21 C          10.0582   -3.0333    0.0000 C.ar    1  UNL1        0.1344
     22 C          10.9242   -2.5333    0.0000 C.ar    1  UNL1        0.0231
     23 C           3.0000    0.0253    0.0000 C.3     1  UNL1        0.1235
     24 C           5.6601   -1.5058    0.0000 C.ar    1  UNL1       -0.0409
     25 C           4.7960   -1.0025    0.0000 C.ar    1  UNL1        0.0171
     26 C           6.5319   -0.0092    0.0000 C.ar    1  UNL1        0.1270
     27 C           4.7999   -0.0025    0.0000 C.ar    1  UNL1        0.1323
     28 C           5.6678    0.4942    0.0000 C.ar    1  UNL1        0.0226
     29 C           2.9960   -1.0164    0.0000 C.2     1  UNL1       -0.0409
     30 C           3.9000   -1.5337    0.0000 C.2     1  UNL1       -0.0513
     31 C          12.3523    2.6113    0.0000 C.2     1  UNL1       -0.0851
     32 C           2.0000    0.0330    0.0000 C.3     1  UNL1       -0.0215
     33 C           2.5067    0.8951    0.0000 C.3     1  UNL1       -0.0215
     34 C          11.8556    3.4792    0.0000 C.2     1  UNL1       -0.0796
     35 C          12.3589    4.3433    0.0000 C.3     1  UNL1       -0.0440
     36 C          10.8556    3.4831    0.0000 C.3     1  UNL1       -0.0440
     37 H           6.8546   -1.8215    0.0000 H       1  UNL1        0.0790
     38 H          12.8190    0.4789    0.0000 H       1  UNL1        0.0310
     39 H          12.8221    1.2759    0.0000 H       1  UNL1        0.0310
     40 H           6.7813   -2.4480    0.0000 H       1  UNL1        0.0385
     41 H           7.1831   -3.1378    0.0000 H       1  UNL1        0.0385
     42 H          10.9378    1.1560    0.0000 H       1  UNL1        0.0611
     43 H          12.8399   -0.6087    0.0000 H       1  UNL1        0.0271
     44 H          13.4622    0.0089    0.0000 H       1  UNL1        0.0271
     45 H          12.8446    0.6313    0.0000 H       1  UNL1        0.0271
     46 H           9.5016    0.3120    0.0000 H       1  UNL1        0.0624
     47 H          11.3755    2.1475    0.0000 H       1  UNL1        0.0309
     48 H          11.3724    1.3505    0.0000 H       1  UNL1        0.0309
     49 H          11.4612   -2.8433    0.0000 H       1  UNL1        0.0691
     50 H           5.6577   -2.1258    0.0000 H       1  UNL1        0.0630
     51 H           5.6702    1.1142    0.0000 H       1  UNL1        0.0691
     52 H           2.4590   -1.3264    0.0000 H       1  UNL1        0.0611
     53 H           3.9048   -2.1537    0.0000 H       1  UNL1        0.0623
     54 H          12.9723    2.6089    0.0000 H       1  UNL1        0.0571
     55 H           2.0048    0.6530    0.0000 H       1  UNL1        0.0271
     56 H           1.3800    0.0378    0.0000 H       1  UNL1        0.0271
     57 H           1.9952   -0.5870    0.0000 H       1  UNL1        0.0271
     58 H           3.0460    1.2010    0.0000 H       1  UNL1        0.0271
     59 H           2.2008    1.4344    0.0000 H       1  UNL1        0.0271
     60 H           1.9674    0.5893    0.0000 H       1  UNL1        0.0271
     61 H          10.5951   -4.3433    0.0000 H       1  UNL1        0.2922
     62 H           7.4023    1.1075    0.0000 H       1  UNL1        0.2921
     63 H          12.8947    4.0312    0.0000 H       1  UNL1        0.0274
     64 H          12.6710    4.8790    0.0000 H       1  UNL1        0.0274
     65 H          10.8580    4.1031    0.0000 H       1  UNL1        0.0274
     66 H          10.2356    3.4855    0.0000 H       1  UNL1        0.0274
     67 H          10.8532    2.8631    0.0000 H       1  UNL1        0.0274
     68 H          11.8232    4.6554    0.0000 H       1  UNL1        0.0274
@<TRIPOS>BOND
     1     1     7    1
     2     1    13    1
     3     2     8    1
     4     2    11    1
     5     3    23    1
     6     3    27    1
     7     4    21    1
     8     4    61    1
     9     5    19    2
    10     6    26    1
    11     6    62    1
    12     7     9    1
    13     7    14    1
    14     7    17    1
    15     8    12    1
    16     8    16    1
    17     8    37    1
    18     9    20    1
    19     9    38    1
    20     9    39    1
    21    10    11   ar
    22    10    13   ar
    23    10    18    1
    24    11    15   ar
    25    12    19    1
    26    12    40    1
    27    12    41    1
    28    13    22   ar
    29    14    18    2
    30    14    42    1
    31    15    19    1
    32    15    21   ar
    33    16    24   ar
    34    16    26   ar
    35    17    43    1
    36    17    44    1
    37    17    45    1
    38    18    46    1
    39    20    31    1
    40    20    47    1
    41    20    48    1
    42    21    22   ar
    43    22    49    1
    44    23    29    1
    45    23    32    1
    46    23    33    1
    47    24    25   ar
    48    24    50    1
    49    25    27   ar
    50    25    30    1
    51    26    28   ar
    52    27    28   ar
    53    28    51    1
    54    29    30    2
    55    29    52    1
    56    30    53    1
    57    31    34    2
    58    31    54    1
    59    32    55    1
    60    32    56    1
    61    32    57    1
    62    33    58    1
    63    33    59    1
    64    33    60    1
    65    34    35    1
    66    34    36    1
    67    35    63    1
    68    35    64    1
    69    35    68    1
    70    36    65    1
    71    36    66    1
    72    36    67    1
