@<TRIPOS>MOLECULE
IMPHY014211
 32 33 0 0 0
SMALL
GASTEIGER

@<TRIPOS>ATOM
      1 O           7.5673    2.6675    0.0000 O.3     1  UNL1       -0.3947
      2 N           4.6783   -2.2060    0.0000 N.ar    1  UNL1       -0.3604
      3 C           5.9674    0.5602    0.0000 C.3     1  UNL1       -0.0443
      4 C           6.2781    1.5107    0.0000 C.3     1  UNL1       -0.0203
      5 C           4.9889    0.3540    0.0000 C.3     1  UNL1       -0.0254
      6 C           4.6783   -0.5965    0.0000 C.ar    1  UNL1       -0.0223
      7 C           3.7320   -0.9013    0.0000 C.ar    1  UNL1        0.0028
      8 C           7.2566    1.7169    0.0000 C.3     1  UNL1        0.0468
      9 C           5.6103    2.2550    0.0000 C.3     1  UNL1       -0.0603
     10 C           3.7320   -1.9013    0.0000 C.ar    1  UNL1        0.0467
     11 C           5.2619   -1.4013    0.0000 C.ar    1  UNL1        0.0059
     12 C           2.8660   -0.4013    0.0000 C.ar    1  UNL1       -0.0523
     13 C           2.8660   -2.4013    0.0000 C.ar    1  UNL1       -0.0378
     14 C           2.0000   -0.9013    0.0000 C.ar    1  UNL1       -0.0611
     15 C           2.0000   -1.9013    0.0000 C.ar    1  UNL1       -0.0598
     16 H           5.9880   -0.0595    0.0000 H       1  UNL1        0.0272
     17 H           6.5812    0.4729    0.0000 H       1  UNL1        0.0272
     18 H           5.6714    1.3829    0.0000 H       1  UNL1        0.0320
     19 H           4.9684    0.9736    0.0000 H       1  UNL1        0.0314
     20 H           4.3751    0.4413    0.0000 H       1  UNL1        0.0314
     21 H           7.2772    1.0973    0.0000 H       1  UNL1        0.0560
     22 H           7.8704    1.6296    0.0000 H       1  UNL1        0.0560
     23 H           6.0717    2.6691    0.0000 H       1  UNL1        0.0233
     24 H           5.1962    2.7165    0.0000 H       1  UNL1        0.0233
     25 H           5.1488    1.8410    0.0000 H       1  UNL1        0.0233
     26 H           5.8819   -1.4013    0.0000 H       1  UNL1        0.0810
     27 H           4.8709   -2.7953    0.0000 H       1  UNL1        0.1653
     28 H           2.8660    0.2187    0.0000 H       1  UNL1        0.0624
     29 H           2.8660   -3.0213    0.0000 H       1  UNL1        0.0638
     30 H           1.4631   -0.5913    0.0000 H       1  UNL1        0.0618
     31 H           1.4631   -2.2113    0.0000 H       1  UNL1        0.0618
     32 H           8.1739    2.7953    0.0000 H       1  UNL1        0.2094
@<TRIPOS>BOND
     1     1     8    1
     2     1    32    1
     3     2    10   ar
     4     2    11   ar
     5     2    27    1
     6     3     4    1
     7     3     5    1
     8     3    16    1
     9     3    17    1
    10     4     8    1
    11     4     9    1
    12     4    18    1
    13     5     6    1
    14     5    19    1
    15     5    20    1
    16     6     7   ar
    17     6    11   ar
    18     7    10   ar
    19     7    12   ar
    20     8    21    1
    21     8    22    1
    22     9    23    1
    23     9    24    1
    24     9    25    1
    25    10    13   ar
    26    11    26    1
    27    12    14   ar
    28    12    28    1
    29    13    15   ar
    30    13    29    1
    31    14    15   ar
    32    14    30    1
    33    15    31    1
