@<TRIPOS>MOLECULE
IMPHY007314
 45 49 0 0 0
SMALL
GASTEIGER

@<TRIPOS>ATOM
      1 O           2.6079    0.4206    0.0000 O.3     1  UNL1       -0.4526
      2 O           2.6079    2.0971    0.0000 O.3     1  UNL1       -0.4526
      3 O          10.7705    0.7981    0.0000 O.3     1  UNL1       -0.4914
      4 O          10.7866   -1.2935    0.0000 O.3     1  UNL1       -0.4914
      5 N           6.2435   -0.7827    0.0000 N.pl3   1  UNL1       -0.3277
      6 C           6.2596    0.2588    0.0000 C.ar    1  UNL1        0.0455
      7 C           7.1256    0.7588    0.0000 C.ar    1  UNL1        0.0042
      8 C           7.1415   -1.3104    0.0000 C.3     1  UNL1        0.0376
      9 C           8.0356    0.2520    0.0000 C.ar    1  UNL1       -0.0077
     10 C           8.0436   -0.7896    0.0000 C.ar    1  UNL1       -0.0188
     11 C           5.3935    0.7588    0.0000 C.ar    1  UNL1        0.0074
     12 C           5.3935    1.7588    0.0000 C.ar    1  UNL1       -0.0124
     13 C           7.1256    1.7588    0.0000 C.ar    1  UNL1       -0.0517
     14 C           6.2596    2.2588    0.0000 C.ar    1  UNL1       -0.0532
     15 C           4.4996    0.2242    0.0000 C.ar    1  UNL1       -0.0066
     16 C           8.9624    0.8161    0.0000 C.ar    1  UNL1       -0.0082
     17 C           8.9790   -1.3393    0.0000 C.ar    1  UNL1       -0.0110
     18 C           5.3717   -1.2726    0.0000 C.3     1  UNL1        0.0011
     19 C           4.4996    2.2935    0.0000 C.ar    1  UNL1       -0.0084
     20 C           3.5935    0.7380    0.0000 C.ar    1  UNL1        0.1669
     21 C           3.5935    1.7796    0.0000 C.ar    1  UNL1        0.1668
     22 C           9.9103    0.2881    0.0000 C.ar    1  UNL1        0.1621
     23 C           9.9187   -0.7968    0.0000 C.ar    1  UNL1        0.1618
     24 C           2.0000    1.2588    0.0000 C.3     1  UNL1        0.2332
     25 C          10.7589    1.7980    0.0000 C.3     1  UNL1        0.0790
     26 C          10.7905   -2.2935    0.0000 C.3     1  UNL1        0.0790
     27 H           6.7406   -1.7833    0.0000 H       1  UNL1        0.0513
     28 H           7.5388   -1.7864    0.0000 H       1  UNL1        0.0513
     29 H           7.6625    2.0688    0.0000 H       1  UNL1        0.0624
     30 H           6.2596    2.8788    0.0000 H       1  UNL1        0.0624
     31 H           4.5068   -0.3958    0.0000 H       1  UNL1        0.0662
     32 H           8.9505    1.4360    0.0000 H       1  UNL1        0.0661
     33 H           8.9766   -1.9593    0.0000 H       1  UNL1        0.0659
     34 H           5.0680   -0.7321    0.0000 H       1  UNL1        0.0428
     35 H           4.8313   -1.5764    0.0000 H       1  UNL1        0.0428
     36 H           5.6755   -1.8131    0.0000 H       1  UNL1        0.0428
     37 H           4.5068    2.9134    0.0000 H       1  UNL1        0.0661
     38 H           1.5391    1.6736    0.0000 H       1  UNL1        0.1166
     39 H           1.5391    0.8441    0.0000 H       1  UNL1        0.1166
     40 H          11.3789    1.8052    0.0000 H       1  UNL1        0.0660
     41 H          10.7518    2.4180    0.0000 H       1  UNL1        0.0660
     42 H          10.1390    1.7909    0.0000 H       1  UNL1        0.0660
     43 H          10.1705   -2.2959    0.0000 H       1  UNL1        0.0660
     44 H          10.7929   -2.9135    0.0000 H       1  UNL1        0.0660
     45 H          11.4105   -2.2911    0.0000 H       1  UNL1        0.0660
@<TRIPOS>BOND
     1     1    20    1
     2     1    24    1
     3     2    21    1
     4     2    24    1
     5     3    22    1
     6     3    25    1
     7     4    23    1
     8     4    26    1
     9     5     6    1
    10     5     8    1
    11     5    18    1
    12     6     7   ar
    13     6    11   ar
    14     7     9    1
    15     7    13   ar
    16     8    10    1
    17     8    27    1
    18     8    28    1
    19     9    10   ar
    20     9    16   ar
    21    10    17   ar
    22    11    12   ar
    23    11    15   ar
    24    12    14   ar
    25    12    19   ar
    26    13    14   ar
    27    13    29    1
    28    14    30    1
    29    15    20   ar
    30    15    31    1
    31    16    22   ar
    32    16    32    1
    33    17    23   ar
    34    17    33    1
    35    18    34    1
    36    18    35    1
    37    18    36    1
    38    19    21   ar
    39    19    37    1
    40    20    21   ar
    41    22    23   ar
    42    24    38    1
    43    24    39    1
    44    25    40    1
    45    25    41    1
    46    25    42    1
    47    26    43    1
    48    26    44    1
    49    26    45    1
