@<TRIPOS>MOLECULE
IMPHY013669
 105 105 0 0 0
SMALL
GASTEIGER

@<TRIPOS>ATOM
      1 O           3.3660    4.1340    0.0000 O.3     1  UNL1       -0.3653
      2 C           2.8660    5.0000    0.0000 C.3     1  UNL1        0.0904
      3 C           3.8660    5.0000    0.0000 C.3     1  UNL1        0.0881
      4 C           4.7320    5.5000    0.0000 C.3     1  UNL1       -0.0202
      5 C           2.8660    6.0000    0.0000 C.3     1  UNL1       -0.0336
      6 C           2.0000    4.5000    0.0000 C.3     1  UNL1       -0.0336
      7 C           5.5981    5.0000    0.0000 C.3     1  UNL1       -0.0296
      8 C           6.4641    5.5000    0.0000 C.2     1  UNL1       -0.0764
      9 C           6.4641    6.5000    0.0000 C.3     1  UNL1       -0.0438
     10 C           7.3301    5.0000    0.0000 C.2     1  UNL1       -0.0847
     11 C           8.1962    5.5000    0.0000 C.3     1  UNL1       -0.0308
     12 C           9.0622    5.0000    0.0000 C.3     1  UNL1       -0.0286
     13 C           9.9282    5.5000    0.0000 C.2     1  UNL1       -0.0762
     14 C          10.7942    5.0000    0.0000 C.2     1  UNL1       -0.0847
     15 C           9.9282    6.5000    0.0000 C.3     1  UNL1       -0.0438
     16 C          21.1865   -5.0000    0.0000 C.3     1  UNL1       -0.0504
     17 C          22.0526   -5.5000    0.0000 C.3     1  UNL1       -0.0467
     18 C          11.6603    5.5000    0.0000 C.3     1  UNL1       -0.0308
     19 C          21.1865   -4.0000    0.0000 C.3     1  UNL1       -0.0491
     20 C          20.3205   -3.5000    0.0000 C.3     1  UNL1       -0.0320
     21 C          12.5263    5.0000    0.0000 C.3     1  UNL1       -0.0283
     22 C          22.0526   -6.5000    0.0000 C.3     1  UNL1       -0.0627
     23 C          22.9186   -5.0000    0.0000 C.3     1  UNL1       -0.0627
     24 C          20.3205   -2.5000    0.0000 C.2     1  UNL1       -0.0765
     25 C          19.4545   -2.0000    0.0000 C.2     1  UNL1       -0.0847
     26 C          19.4545   -1.0000    0.0000 C.3     1  UNL1       -0.0308
     27 C          13.3923    5.5000    0.0000 C.2     1  UNL1       -0.0723
     28 C          21.1865   -2.0000    0.0000 C.3     1  UNL1       -0.0438
     29 C          18.5885   -0.5000    0.0000 C.3     1  UNL1       -0.0283
     30 C          13.3923    6.5000    0.0000 C.3     1  UNL1       -0.0435
     31 C          18.5885    0.5000    0.0000 C.2     1  UNL1       -0.0723
     32 C          14.2583    5.0000    0.0000 C.2     1  UNL1       -0.0628
     33 C          19.4545    1.0000    0.0000 C.3     1  UNL1       -0.0435
     34 C          17.7224    1.0000    0.0000 C.2     1  UNL1       -0.0628
     35 C          14.2583    4.0000    0.0000 C.2     1  UNL1       -0.0618
     36 C          17.7224    2.0000    0.0000 C.2     1  UNL1       -0.0616
     37 C          15.1244    3.5000    0.0000 C.2     1  UNL1       -0.0615
     38 C          16.8564    2.5000    0.0000 C.2     1  UNL1       -0.0588
     39 C          15.9904    2.0000    0.0000 C.2     1  UNL1       -0.0504
     40 C          15.1244    2.5000    0.0000 C.2     1  UNL1       -0.0588
     41 C          15.9904    1.0000    0.0000 C.3     1  UNL1       -0.0397
     42 H           4.3044    4.5616    0.0000 H       1  UNL1        0.0625
     43 H           5.1306    5.9750    0.0000 H       1  UNL1        0.0294
     44 H           4.3335    5.9750    0.0000 H       1  UNL1        0.0294
     45 H           3.4860    6.0000    0.0000 H       1  UNL1        0.0258
     46 H           2.8660    6.6200    0.0000 H       1  UNL1        0.0258
     47 H           2.2460    6.0000    0.0000 H       1  UNL1        0.0258
     48 H           1.6900    5.0369    0.0000 H       1  UNL1        0.0258
     49 H           1.4631    4.1900    0.0000 H       1  UNL1        0.0258
     50 H           2.3100    3.9631    0.0000 H       1  UNL1        0.0258
     51 H           5.1996    4.5250    0.0000 H       1  UNL1        0.0311
     52 H           5.9966    4.5250    0.0000 H       1  UNL1        0.0311
     53 H           7.0841    6.5000    0.0000 H       1  UNL1        0.0274
     54 H           6.4641    7.1200    0.0000 H       1  UNL1        0.0274
     55 H           5.8441    6.5000    0.0000 H       1  UNL1        0.0274
     56 H           7.3301    4.3800    0.0000 H       1  UNL1        0.0572
     57 H           8.5947    5.9750    0.0000 H       1  UNL1        0.0310
     58 H           7.7976    5.9750    0.0000 H       1  UNL1        0.0310
     59 H           8.6636    4.5250    0.0000 H       1  UNL1        0.0313
     60 H           9.4607    4.5250    0.0000 H       1  UNL1        0.0313
     61 H          10.7942    4.3800    0.0000 H       1  UNL1        0.0572
     62 H          10.5482    6.5000    0.0000 H       1  UNL1        0.0274
     63 H           9.9282    7.1200    0.0000 H       1  UNL1        0.0274
     64 H           9.3082    6.5000    0.0000 H       1  UNL1        0.0274
     65 H          20.5760   -4.8923    0.0000 H       1  UNL1        0.0268
     66 H          20.9745   -5.5826    0.0000 H       1  UNL1        0.0268
     67 H          22.0526   -4.8800    0.0000 H       1  UNL1        0.0295
     68 H          21.7971   -4.1077    0.0000 H       1  UNL1        0.0268
     69 H          21.3986   -3.4174    0.0000 H       1  UNL1        0.0268
     70 H          12.0588    5.9750    0.0000 H       1  UNL1        0.0310
     71 H          11.2617    5.9750    0.0000 H       1  UNL1        0.0310
     72 H          19.7099   -3.3923    0.0000 H       1  UNL1        0.0310
     73 H          20.1085   -4.0826    0.0000 H       1  UNL1        0.0310
     74 H          12.1278    4.5250    0.0000 H       1  UNL1        0.0313
     75 H          12.9248    4.5250    0.0000 H       1  UNL1        0.0313
     76 H          21.4326   -6.5000    0.0000 H       1  UNL1        0.0232
     77 H          22.0526   -7.1200    0.0000 H       1  UNL1        0.0232
     78 H          22.6726   -6.5000    0.0000 H       1  UNL1        0.0232
     79 H          23.2286   -5.5369    0.0000 H       1  UNL1        0.0232
     80 H          23.4555   -4.6900    0.0000 H       1  UNL1        0.0232
     81 H          22.6086   -4.4631    0.0000 H       1  UNL1        0.0232
     82 H          18.9175   -2.3100    0.0000 H       1  UNL1        0.0572
     83 H          20.0651   -1.1077    0.0000 H       1  UNL1        0.0310
     84 H          19.6665   -0.4174    0.0000 H       1  UNL1        0.0310
     85 H          21.4965   -2.5369    0.0000 H       1  UNL1        0.0274
     86 H          21.7235   -1.6900    0.0000 H       1  UNL1        0.0274
     87 H          20.8765   -1.4631    0.0000 H       1  UNL1        0.0274
     88 H          17.9779   -0.3923    0.0000 H       1  UNL1        0.0313
     89 H          18.3764   -1.0826    0.0000 H       1  UNL1        0.0313
     90 H          14.0123    6.5000    0.0000 H       1  UNL1        0.0274
     91 H          13.3923    7.1200    0.0000 H       1  UNL1        0.0274
     92 H          12.7723    6.5000    0.0000 H       1  UNL1        0.0274
     93 H          14.7953    5.3100    0.0000 H       1  UNL1        0.0617
     94 H          19.7645    0.4631    0.0000 H       1  UNL1        0.0274
     95 H          19.9914    1.3100    0.0000 H       1  UNL1        0.0274
     96 H          19.1445    1.5369    0.0000 H       1  UNL1        0.0274
     97 H          17.1855    0.6900    0.0000 H       1  UNL1        0.0617
     98 H          13.7214    3.6900    0.0000 H       1  UNL1        0.0618
     99 H          18.2594    2.3100    0.0000 H       1  UNL1        0.0618
    100 H          15.6613    3.8100    0.0000 H       1  UNL1        0.0618
    101 H          16.8564    3.1200    0.0000 H       1  UNL1        0.0620
    102 H          14.5874    2.1900    0.0000 H       1  UNL1        0.0620
    103 H          15.3704    1.0000    0.0000 H       1  UNL1        0.0278
    104 H          15.9904    0.3800    0.0000 H       1  UNL1        0.0278
    105 H          16.6104    1.0000    0.0000 H       1  UNL1        0.0278
@<TRIPOS>BOND
     1     1     2    1
     2     1     3    1
     3     2     3    1
     4     2     5    1
     5     2     6    1
     6     3     4    1
     7     3    42    1
     8     4     7    1
     9     4    43    1
    10     4    44    1
    11     5    45    1
    12     5    46    1
    13     5    47    1
    14     6    48    1
    15     6    49    1
    16     6    50    1
    17     7     8    1
    18     7    51    1
    19     7    52    1
    20     8     9    1
    21     8    10    2
    22     9    53    1
    23     9    54    1
    24     9    55    1
    25    10    11    1
    26    10    56    1
    27    11    12    1
    28    11    57    1
    29    11    58    1
    30    12    13    1
    31    12    59    1
    32    12    60    1
    33    13    14    2
    34    13    15    1
    35    14    18    1
    36    14    61    1
    37    15    62    1
    38    15    63    1
    39    15    64    1
    40    16    17    1
    41    16    19    1
    42    16    65    1
    43    16    66    1
    44    17    22    1
    45    17    23    1
    46    17    67    1
    47    18    21    1
    48    18    70    1
    49    18    71    1
    50    19    20    1
    51    19    68    1
    52    19    69    1
    53    20    24    1
    54    20    72    1
    55    20    73    1
    56    21    27    1
    57    21    74    1
    58    21    75    1
    59    22    76    1
    60    22    77    1
    61    22    78    1
    62    23    79    1
    63    23    80    1
    64    23    81    1
    65    24    25    2
    66    24    28    1
    67    25    26    1
    68    25    82    1
    69    26    29    1
    70    26    83    1
    71    26    84    1
    72    27    30    1
    73    27    32    2
    74    28    85    1
    75    28    86    1
    76    28    87    1
    77    29    31    1
    78    29    88    1
    79    29    89    1
    80    30    90    1
    81    30    91    1
    82    30    92    1
    83    31    33    1
    84    31    34    2
    85    32    35    1
    86    32    93    1
    87    33    94    1
    88    33    95    1
    89    33    96    1
    90    34    36    1
    91    34    97    1
    92    35    37    2
    93    35    98    1
    94    36    38    2
    95    36    99    1
    96    37    40    1
    97    37   100    1
    98    38    39    1
    99    38   101    1
   100    39    40    2
   101    39    41    1
   102    40   102    1
   103    41   103    1
   104    41   104    1
   105    41   105    1
