@<TRIPOS>MOLECULE
IMPHY014599
 86 88 0 0 0
SMALL
GASTEIGER

@<TRIPOS>ATOM
      1 O           4.2690   -2.1550    0.0000 O.3     1  UNL1       -0.3405
      2 O           6.0010   -2.1550    0.0000 O.3     1  UNL1       -0.3414
      3 O          12.9292    2.8450    0.0000 O.3     1  UNL1       -0.3313
      4 O           4.2690   -5.1550    0.0000 O.3     1  UNL1       -0.3864
      5 O           6.0010   -4.1550    0.0000 O.3     1  UNL1       -0.3841
      6 O           2.5369   -4.1550    0.0000 O.3     1  UNL1       -0.3865
      7 O          15.5273    3.3450    0.0000 O.3     1  UNL1       -0.3865
      8 O          15.5273    1.3450    0.0000 O.3     1  UNL1       -0.3864
      9 O          12.0632    1.3450    0.0000 O.3     1  UNL1       -0.4535
     10 O          13.7953    0.3450    0.0000 O.3     1  UNL1       -0.3829
     11 O           2.5369   -1.1550    0.0000 O.3     1  UNL1       -0.3924
     12 O          14.6613    4.8450    0.0000 O.3     1  UNL1       -0.3924
     13 O           6.8671    1.3450    0.0000 O.3     1  UNL1       -0.4604
     14 O           8.5010   -2.0210    0.0000 O.3     1  UNL1       -0.4805
     15 O           7.7331   -0.1550    0.0000 O.2     1  UNL1       -0.2507
     16 O           7.0010   -2.8870    0.0000 O.2     1  UNL1       -0.2509
     17 O          10.3312    0.3450    0.0000 O.3     1  UNL1       -0.4913
     18 O          12.0632    3.3450    0.0000 O.3     1  UNL1       -0.5032
     19 C           4.2690   -4.1550    0.0000 C.3     1  UNL1        0.1141
     20 C           5.1350   -3.6550    0.0000 C.3     1  UNL1        0.1341
     21 C           3.4030   -3.6550    0.0000 C.3     1  UNL1        0.1119
     22 C           5.1350   -2.6550    0.0000 C.3     1  UNL1        0.1885
     23 C           3.4030   -2.6550    0.0000 C.3     1  UNL1        0.1130
     24 C           6.0010   -1.1550    0.0000 C.3     1  UNL1        0.0899
     25 C          14.6613    2.8450    0.0000 C.3     1  UNL1        0.1120
     26 C          14.6613    1.8450    0.0000 C.3     1  UNL1        0.1152
     27 C          13.7953    3.3450    0.0000 C.3     1  UNL1        0.1140
     28 C          13.7953    1.3450    0.0000 C.3     1  UNL1        0.1454
     29 C           2.5369   -2.1550    0.0000 C.3     1  UNL1        0.0730
     30 C          12.9292    1.8450    0.0000 C.3     1  UNL1        0.2311
     31 C           6.0010   -0.1550    0.0000 C.3     1  UNL1        0.0743
     32 C           7.0010   -1.1550    0.0000 C.3     1  UNL1        0.0741
     33 C           5.0010   -1.1550    0.0000 C.3     1  UNL1       -0.0347
     34 C          13.7953    4.3450    0.0000 C.3     1  UNL1        0.0731
     35 C           6.8671    0.3450    0.0000 C.2     1  UNL1        0.3102
     36 C           7.5010   -2.0210    0.0000 C.2     1  UNL1        0.3075
     37 C          11.1972    1.8450    0.0000 C.ar    1  UNL1        0.2065
     38 C          10.3312    1.3450    0.0000 C.ar    1  UNL1        0.1658
     39 C          11.1972    2.8450    0.0000 C.ar    1  UNL1        0.1628
     40 C           7.7331    1.8450    0.0000 C.3     1  UNL1        0.1110
     41 C           9.4651    1.8450    0.0000 C.ar    1  UNL1       -0.0089
     42 C           9.4651    2.8450    0.0000 C.ar    1  UNL1       -0.0181
     43 C          10.3312    3.3450    0.0000 C.ar    1  UNL1       -0.0091
     44 C           7.7331    2.8450    0.0000 C.2     1  UNL1       -0.0465
     45 C           8.5991    3.3450    0.0000 C.2     1  UNL1       -0.0551
     46 C          11.1972   -0.1550    0.0000 C.3     1  UNL1        0.0790
     47 H           4.8059   -4.4650    0.0000 H       1  UNL1        0.0648
     48 H           5.6720   -3.3450    0.0000 H       1  UNL1        0.0671
     49 H           2.8660   -3.3450    0.0000 H       1  UNL1        0.0647
     50 H           5.1350   -2.0350    0.0000 H       1  UNL1        0.0938
     51 H           3.4030   -2.0350    0.0000 H       1  UNL1        0.0647
     52 H          14.6613    3.4650    0.0000 H       1  UNL1        0.0647
     53 H          15.1982    2.1550    0.0000 H       1  UNL1        0.0648
     54 H          13.2583    3.6550    0.0000 H       1  UNL1        0.0647
     55 H          14.3322    1.0350    0.0000 H       1  UNL1        0.0683
     56 H           1.9264   -2.0473    0.0000 H       1  UNL1        0.0584
     57 H           2.3249   -2.7376    0.0000 H       1  UNL1        0.0584
     58 H          12.3923    2.1550    0.0000 H       1  UNL1        0.1084
     59 H           5.7890    0.4276    0.0000 H       1  UNL1        0.0406
     60 H           5.3905   -0.2627    0.0000 H       1  UNL1        0.0406
     61 H           7.5836   -0.9429    0.0000 H       1  UNL1        0.0406
     62 H           6.8934   -0.5444    0.0000 H       1  UNL1        0.0406
     63 H           5.0010   -0.5350    0.0000 H       1  UNL1        0.0258
     64 H           4.3810   -1.1550    0.0000 H       1  UNL1        0.0258
     65 H           5.0010   -1.7750    0.0000 H       1  UNL1        0.0258
     66 H           3.7320   -5.4650    0.0000 H       1  UNL1        0.2100
     67 H           6.0010   -4.7750    0.0000 H       1  UNL1        0.2101
     68 H           2.0000   -3.8450    0.0000 H       1  UNL1        0.2100
     69 H          13.5832    4.9276    0.0000 H       1  UNL1        0.0584
     70 H          13.1847    4.2373    0.0000 H       1  UNL1        0.0584
     71 H          16.0643    3.0350    0.0000 H       1  UNL1        0.2100
     72 H          16.0643    1.6550    0.0000 H       1  UNL1        0.2100
     73 H          14.3322    0.0350    0.0000 H       1  UNL1        0.2102
     74 H           2.0000   -0.8450    0.0000 H       1  UNL1        0.2095
     75 H          14.6613    5.4650    0.0000 H       1  UNL1        0.2095
     76 H           8.8110   -2.5580    0.0000 H       1  UNL1        0.2951
     77 H           7.9451    1.2624    0.0000 H       1  UNL1        0.0743
     78 H           8.3437    1.9527    0.0000 H       1  UNL1        0.0743
     79 H           8.9282    1.5350    0.0000 H       1  UNL1        0.0661
     80 H          10.3312    3.9650    0.0000 H       1  UNL1        0.0661
     81 H           7.1962    3.1550    0.0000 H       1  UNL1        0.0606
     82 H           8.5991    3.9650    0.0000 H       1  UNL1        0.0621
     83 H          12.0632    3.9650    0.0000 H       1  UNL1        0.2923
     84 H          10.8872   -0.6919    0.0000 H       1  UNL1        0.0660
     85 H          11.7341   -0.4650    0.0000 H       1  UNL1        0.0660
     86 H          11.5072    0.3819    0.0000 H       1  UNL1        0.0660
@<TRIPOS>BOND
     1     1    22    1
     2     1    23    1
     3    22     2    1
     4     2    24    1
     5     3    27    1
     6     3    30    1
     7    19     4    1
     8     4    66    1
     9    20     5    1
    10     5    67    1
    11    21     6    1
    12     6    68    1
    13    25     7    1
    14     7    71    1
    15    26     8    1
    16     8    72    1
    17    30     9    1
    18     9    37    1
    19    28    10    1
    20    10    73    1
    21    11    29    1
    22    11    74    1
    23    12    34    1
    24    12    75    1
    25    13    35    1
    26    13    40    1
    27    14    36    1
    28    14    76    1
    29    15    35    2
    30    16    36    2
    31    17    38    1
    32    17    46    1
    33    18    39    1
    34    18    83    1
    35    19    20    1
    36    19    21    1
    37    19    47    1
    38    20    22    1
    39    20    48    1
    40    21    23    1
    41    21    49    1
    42    22    50    1
    43    23    29    1
    44    23    51    1
    45    24    31    1
    46    24    32    1
    47    24    33    1
    48    25    26    1
    49    25    27    1
    50    25    52    1
    51    26    28    1
    52    26    53    1
    53    27    34    1
    54    27    54    1
    55    28    30    1
    56    28    55    1
    57    29    56    1
    58    29    57    1
    59    30    58    1
    60    31    35    1
    61    31    59    1
    62    31    60    1
    63    32    36    1
    64    32    61    1
    65    32    62    1
    66    33    63    1
    67    33    64    1
    68    33    65    1
    69    34    69    1
    70    34    70    1
    71    37    38   ar
    72    37    39   ar
    73    38    41   ar
    74    39    43   ar
    75    40    44    1
    76    40    77    1
    77    40    78    1
    78    41    42   ar
    79    41    79    1
    80    42    43   ar
    81    42    45    1
    82    43    80    1
    83    44    45    2
    84    44    81    1
    85    45    82    1
    86    46    84    1
    87    46    85    1
    88    46    86    1
