@<TRIPOS>MOLECULE
IMPHY012701
 73 79 0 0 0
SMALL
GASTEIGER

@<TRIPOS>ATOM
      1 S           4.0547   -1.7655    0.0000 S.2     1  UNL1       -0.0635
      2 O          11.7602    4.6468    0.0000 O.3     1  UNL1       -0.3915
      3 O           5.5441   -4.0232    0.0000 O.2     1  UNL1       -0.2860
      4 N           4.0408    0.1251    0.0000 N.ar    1  UNL1       -0.2444
      5 N           6.6298   -2.3259    0.0000 N.pl3   1  UNL1       -0.3565
      6 C           8.1523    2.5025    0.0000 C.3     1  UNL1       -0.0285
      7 C           8.1523    1.5025    0.0000 C.3     1  UNL1       -0.0301
      8 C           7.2863    1.0025    0.0000 C.3     1  UNL1       -0.0242
      9 C           6.4203    1.5025    0.0000 C.3     1  UNL1       -0.0017
     10 C           9.0463    3.0371    0.0000 C.3     1  UNL1       -0.0078
     11 C           7.2863    3.0025    0.0000 C.3     1  UNL1       -0.0484
     12 C           6.4203    2.5025    0.0000 C.3     1  UNL1       -0.0430
     13 C           7.0771    0.0307    0.0000 C.3     1  UNL1       -0.0227
     14 C           9.0463    0.9678    0.0000 C.3     1  UNL1       -0.0311
     15 C           5.6833    0.8354    0.0000 C.ar    1  UNL1       -0.0163
     16 C           9.9523    2.5233    0.0000 C.2     1  UNL1       -0.0648
     17 C           9.0212    4.1218    0.0000 C.3     1  UNL1       -0.0413
     18 C           6.0884   -0.0724    0.0000 C.ar    1  UNL1       -0.0302
     19 C           5.5543    2.0025    0.0000 C.3     1  UNL1       -0.0552
     20 C           9.9523    1.4816    0.0000 C.2     1  UNL1       -0.0839
     21 C           8.1764    3.5304    0.0000 C.3     1  UNL1       -0.0556
     22 C          10.8961    3.0585    0.0000 C.3     1  UNL1       -0.0051
     23 C           9.9523    4.6788    0.0000 C.3     1  UNL1       -0.0258
     24 C          10.8961    4.1435    0.0000 C.3     1  UNL1        0.0590
     25 C           4.6552    0.9586    0.0000 C.ar    1  UNL1        0.0435
     26 C           5.4935   -0.9199    0.0000 C.ar    1  UNL1        0.0325
     27 C           4.4628   -0.8205    0.0000 C.ar    1  UNL1        0.1112
     28 C           4.2582    1.8764    0.0000 C.3     1  UNL1       -0.0220
     29 C           5.7135   -1.9254    0.0000 C.ar    1  UNL1        0.0523
     30 C           4.8261   -2.4470    0.0000 C.ar    1  UNL1        0.0826
     31 C           4.7301   -3.4424    0.0000 C.2     1  UNL1        0.2015
     32 C           3.8200   -3.8569    0.0000 C.ar    1  UNL1        0.0228
     33 C           3.0060   -3.2761    0.0000 C.ar    1  UNL1       -0.0509
     34 C           3.7240   -4.8523    0.0000 C.ar    1  UNL1       -0.0509
     35 C           2.0960   -3.6906    0.0000 C.ar    1  UNL1       -0.0611
     36 C           2.8140   -5.2668    0.0000 C.ar    1  UNL1       -0.0611
     37 C           2.0000   -4.6860    0.0000 C.ar    1  UNL1       -0.0617
     38 H           8.6916    2.1966    0.0000 H       1  UNL1        0.0312
     39 H           8.1476    0.8825    0.0000 H       1  UNL1        0.0310
     40 H           7.7874    0.6374    0.0000 H       1  UNL1        0.0315
     41 H           7.6848    3.4774    0.0000 H       1  UNL1        0.0269
     42 H           6.8878    3.4774    0.0000 H       1  UNL1        0.0269
     43 H           6.2082    3.0851    0.0000 H       1  UNL1        0.0274
     44 H           5.8097    2.3948    0.0000 H       1  UNL1        0.0274
     45 H           7.0762   -0.5893    0.0000 H       1  UNL1        0.0316
     46 H           7.6936   -0.0354    0.0000 H       1  UNL1        0.0316
     47 H           8.6417    0.4980    0.0000 H       1  UNL1        0.0310
     48 H           9.4399    0.4888    0.0000 H       1  UNL1        0.0310
     49 H           8.7987    4.7005    0.0000 H       1  UNL1        0.0274
     50 H           8.4130    4.0016    0.0000 H       1  UNL1        0.0274
     51 H           5.8643    2.5394    0.0000 H       1  UNL1        0.0238
     52 H           5.0173    2.3125    0.0000 H       1  UNL1        0.0238
     53 H           5.2443    1.4655    0.0000 H       1  UNL1        0.0238
     54 H          10.4881    1.1696    0.0000 H       1  UNL1        0.0572
     55 H           8.4823    4.0698    0.0000 H       1  UNL1        0.0238
     56 H           7.6371    3.8363    0.0000 H       1  UNL1        0.0238
     57 H           7.8706    2.9911    0.0000 H       1  UNL1        0.0238
     58 H          11.1052    2.4748    0.0000 H       1  UNL1        0.0335
     59 H          11.5070    3.1646    0.0000 H       1  UNL1        0.0335
     60 H          10.3460    5.1578    0.0000 H       1  UNL1        0.0290
     61 H           9.5478    5.1485    0.0000 H       1  UNL1        0.0290
     62 H          11.4337    3.8346    0.0000 H       1  UNL1        0.0596
     63 H           4.8273    2.1225    0.0000 H       1  UNL1        0.0293
     64 H           4.0121    2.4455    0.0000 H       1  UNL1        0.0293
     65 H           3.6892    1.6303    0.0000 H       1  UNL1        0.0293
     66 H          11.7578    5.2668    0.0000 H       1  UNL1        0.2098
     67 H           6.6988   -2.9421    0.0000 H       1  UNL1        0.1424
     68 H           7.1289   -1.9581    0.0000 H       1  UNL1        0.1424
     69 H           3.0655   -2.6590    0.0000 H       1  UNL1        0.0625
     70 H           4.2288   -5.2124    0.0000 H       1  UNL1        0.0625
     71 H           1.5913   -3.3305    0.0000 H       1  UNL1        0.0618
     72 H           2.7545   -5.8840    0.0000 H       1  UNL1        0.0618
     73 H           1.4358   -4.9430    0.0000 H       1  UNL1        0.0618
@<TRIPOS>BOND
     1     1    27   ar
     2     1    30   ar
     3     2    24    1
     4     2    66    1
     5     3    31    2
     6     4    25   ar
     7     4    27   ar
     8     5    29    1
     9     5    67    1
    10     5    68    1
    11     6     7    1
    12     6    10    1
    13     6    11    1
    14     6    38    1
    15     7     8    1
    16     7    14    1
    17     7    39    1
    18     8     9    1
    19     8    13    1
    20     8    40    1
    21     9    12    1
    22     9    15    1
    23     9    19    1
    24    10    16    1
    25    10    17    1
    26    10    21    1
    27    11    12    1
    28    11    41    1
    29    11    42    1
    30    12    43    1
    31    12    44    1
    32    13    18    1
    33    13    45    1
    34    13    46    1
    35    14    20    1
    36    14    47    1
    37    14    48    1
    38    15    18   ar
    39    15    25   ar
    40    16    20    2
    41    16    22    1
    42    17    23    1
    43    17    49    1
    44    17    50    1
    45    18    26   ar
    46    19    51    1
    47    19    52    1
    48    19    53    1
    49    20    54    1
    50    21    55    1
    51    21    56    1
    52    21    57    1
    53    22    24    1
    54    22    58    1
    55    22    59    1
    56    23    24    1
    57    23    60    1
    58    23    61    1
    59    24    62    1
    60    25    28    1
    61    26    27   ar
    62    26    29   ar
    63    28    63    1
    64    28    64    1
    65    28    65    1
    66    29    30   ar
    67    30    31    1
    68    31    32    1
    69    32    33   ar
    70    32    34   ar
    71    33    35   ar
    72    33    69    1
    73    34    36   ar
    74    34    70    1
    75    35    37   ar
    76    35    71    1
    77    36    37   ar
    78    36    72    1
    79    37    73    1
