@<TRIPOS>MOLECULE
IMPHY016153
 20 20 0 0 0
SMALL
GASTEIGER

@<TRIPOS>ATOM
      1 O           2.0000    1.0950    0.0000 O.3     1  UNL1       -0.3849
      2 O           3.7320    2.0950    0.0000 O.3     1  UNL1       -0.3921
      3 C           2.8660    0.5950    0.0000 C.3     1  UNL1        0.1032
      4 C           2.8660   -0.4050    0.0000 C.ar    1  UNL1       -0.0170
      5 C           3.7320    1.0950    0.0000 C.3     1  UNL1        0.0743
      6 C           2.0000   -0.9050    0.0000 C.ar    1  UNL1       -0.0561
      7 C           3.7320   -0.9050    0.0000 C.ar    1  UNL1       -0.0561
      8 C           2.0000   -1.9050    0.0000 C.ar    1  UNL1       -0.0614
      9 C           3.7320   -1.9050    0.0000 C.ar    1  UNL1       -0.0614
     10 C           2.8660   -2.4050    0.0000 C.ar    1  UNL1       -0.0617
     11 H           2.8660    1.2150    0.0000 H       1  UNL1        0.0667
     12 H           3.9441    0.5124    0.0000 H       1  UNL1        0.0586
     13 H           4.3426    1.2027    0.0000 H       1  UNL1        0.0586
     14 H           1.4631   -0.5950    0.0000 H       1  UNL1        0.0621
     15 H           4.2690   -0.5950    0.0000 H       1  UNL1        0.0621
     16 H           1.4631   -2.2150    0.0000 H       1  UNL1        0.0618
     17 H           4.2690   -2.2150    0.0000 H       1  UNL1        0.0618
     18 H           2.8660   -3.0250    0.0000 H       1  UNL1        0.0618
     19 H           2.0000    1.7150    0.0000 H       1  UNL1        0.2103
     20 H           4.2690    2.4050    0.0000 H       1  UNL1        0.2095
@<TRIPOS>BOND
     1     1     3    1
     2     1    19    1
     3     2     5    1
     4     2    20    1
     5     3     4    1
     6     3     5    1
     7     3    11    1
     8     4     6   ar
     9     4     7   ar
    10     5    12    1
    11     5    13    1
    12     6     8   ar
    13     6    14    1
    14     7     9   ar
    15     7    15    1
    16     8    10   ar
    17     8    16    1
    18     9    10   ar
    19     9    17    1
    20    10    18    1
