@<TRIPOS>MOLECULE
IMPHY009423
 39 42 0 0 0
SMALL
GASTEIGER

@<TRIPOS>ATOM
      1 O           1.9853   -0.3507    0.0000 O.3     1  UNL1       -0.3649
      2 O           5.8657    1.0024    0.0000 O.3     1  UNL1       -0.3657
      3 O           6.0350    2.4210    0.0000 O.3     1  UNL1       -0.3910
      4 O           6.3675   -3.0198    0.0000 O.2     1  UNL1       -0.2924
      5 C           4.0913    0.3476    0.0000 C.3     1  UNL1        0.0360
      6 C           2.6924    0.3564    0.0000 C.3     1  UNL1        0.1270
      7 C           5.3123   -0.5181    0.0000 C.3     1  UNL1        0.0152
      8 C           3.8325    1.3135    0.0000 C.3     1  UNL1        0.0935
      9 C           5.0691    2.1621    0.0000 C.3     1  UNL1        0.0664
     10 C           1.7264    0.6152    0.0000 C.3     1  UNL1        0.0807
     11 C           4.2031    2.6621    0.0000 C.3     1  UNL1        0.0030
     12 C           6.1414    0.0411    0.0000 C.3     1  UNL1        0.0843
     13 C           3.8324   -0.6183    0.0000 C.3     1  UNL1       -0.0538
     14 C           5.3690   -1.5582    0.0000 C.3     1  UNL1        0.0188
     15 C           4.4833   -1.0773    0.0000 C.3     1  UNL1       -0.0558
     16 C           7.0845   -0.4010    0.0000 C.2     1  UNL1       -0.0489
     17 C           6.3016   -2.0220    0.0000 C.2     1  UNL1        0.1594
     18 C           7.1652   -1.4395    0.0000 C.2     1  UNL1       -0.0095
     19 C           8.0657   -1.8744    0.0000 C.3     1  UNL1       -0.0366
     20 H           3.6125    2.1345    0.0000 H       1  UNL1        0.0627
     21 H           5.1500    2.7768    0.0000 H       1  UNL1        0.0601
     22 H           1.1088    0.5612    0.0000 H       1  UNL1        0.0590
     23 H           1.7805    1.2328    0.0000 H       1  UNL1        0.0590
     24 H           3.6214    2.8767    0.0000 H       1  UNL1        0.0316
     25 H           4.4663    3.2235    0.0000 H       1  UNL1        0.0316
     26 H           6.8460    0.5164    0.0000 H       1  UNL1        0.0646
     27 H           4.4313   -0.7788    0.0000 H       1  UNL1        0.0237
     28 H           3.6719   -1.2172    0.0000 H       1  UNL1        0.0237
     29 H           3.2336   -0.4578    0.0000 H       1  UNL1        0.0237
     30 H           5.1920   -2.1524    0.0000 H       1  UNL1        0.0351
     31 H           4.7533   -1.4855    0.0000 H       1  UNL1        0.0351
     32 H           4.8300   -1.5913    0.0000 H       1  UNL1        0.0236
     33 H           3.9693   -1.4240    0.0000 H       1  UNL1        0.0236
     34 H           4.1366   -0.5633    0.0000 H       1  UNL1        0.0236
     35 H           7.5945   -0.0484    0.0000 H       1  UNL1        0.0601
     36 H           6.1955    3.0198    0.0000 H       1  UNL1        0.2098
     37 H           8.3353   -1.3161    0.0000 H       1  UNL1        0.0279
     38 H           8.6240   -2.1441    0.0000 H       1  UNL1        0.0279
     39 H           7.7960   -2.4327    0.0000 H       1  UNL1        0.0279
@<TRIPOS>BOND
     1     6     1    1
     2     1    10    1
     3     2     8    1
     4     2    12    1
     5     9     3    1
     6     3    36    1
     7     4    17    2
     8     5     6    1
     9     5     7    1
    10     5     9    1
    11     5    13    1
    12     6     8    1
    13     6    10    1
    14     7    12    1
    15     7    14    1
    16     7    15    1
    17     8    11    1
    18     8    20    1
    19     9    11    1
    20     9    21    1
    21    10    22    1
    22    10    23    1
    23    11    24    1
    24    11    25    1
    25    12    16    1
    26    12    26    1
    27    13    27    1
    28    13    28    1
    29    13    29    1
    30    14    17    1
    31    14    30    1
    32    14    31    1
    33    15    32    1
    34    15    33    1
    35    15    34    1
    36    16    18    2
    37    16    35    1
    38    17    18    1
    39    18    19    1
    40    19    37    1
    41    19    38    1
    42    19    39    1
