@<TRIPOS>MOLECULE
IMPHY005132
 42 43 0 0 0
SMALL
GASTEIGER

@<TRIPOS>ATOM
      1 O           3.7320    3.2500    0.0000 O.3     1  UNL1       -0.4913
      2 O           7.1962    3.2500    0.0000 O.3     1  UNL1       -0.4913
      3 O           2.8660   -3.2500    0.0000 O.3     1  UNL1       -0.4915
      4 O           5.4641    4.2500    0.0000 O.3     1  UNL1       -0.5009
      5 O           4.5981   -4.2500    0.0000 O.3     1  UNL1       -0.5033
      6 C           5.4641    0.2500    0.0000 C.3     1  UNL1       -0.0235
      7 C           4.5981   -0.2500    0.0000 C.3     1  UNL1       -0.0236
      8 C           5.4641    1.2500    0.0000 C.ar    1  UNL1       -0.0399
      9 C           4.5981   -1.2500    0.0000 C.ar    1  UNL1       -0.0434
     10 C           6.3301    1.7500    0.0000 C.ar    1  UNL1       -0.0129
     11 C           4.5981    1.7500    0.0000 C.ar    1  UNL1       -0.0129
     12 C           3.7320   -1.7500    0.0000 C.ar    1  UNL1       -0.0131
     13 C           5.4641   -1.7500    0.0000 C.ar    1  UNL1       -0.0549
     14 C           4.5981    2.7500    0.0000 C.ar    1  UNL1        0.1652
     15 C           6.3301    2.7500    0.0000 C.ar    1  UNL1        0.1652
     16 C           5.4641    3.2500    0.0000 C.ar    1  UNL1        0.2010
     17 C           3.7320   -2.7500    0.0000 C.ar    1  UNL1        0.1615
     18 C           5.4641   -2.7500    0.0000 C.ar    1  UNL1       -0.0163
     19 C           4.5981   -3.2500    0.0000 C.ar    1  UNL1        0.1585
     20 C           2.8660    2.7500    0.0000 C.3     1  UNL1        0.0790
     21 C           8.0622    2.7500    0.0000 C.3     1  UNL1        0.0790
     22 C           2.0000   -2.7500    0.0000 C.3     1  UNL1        0.0790
     23 H           5.6762   -0.3326    0.0000 H       1  UNL1        0.0316
     24 H           6.0747    0.3577    0.0000 H       1  UNL1        0.0316
     25 H           4.3860    0.3326    0.0000 H       1  UNL1        0.0316
     26 H           3.9875   -0.3577    0.0000 H       1  UNL1        0.0316
     27 H           6.8671    1.4400    0.0000 H       1  UNL1        0.0658
     28 H           4.0611    1.4400    0.0000 H       1  UNL1        0.0658
     29 H           3.1951   -1.4400    0.0000 H       1  UNL1        0.0658
     30 H           6.0010   -1.4400    0.0000 H       1  UNL1        0.0621
     31 H           6.0010   -3.0600    0.0000 H       1  UNL1        0.0655
     32 H           6.0010    4.5600    0.0000 H       1  UNL1        0.2924
     33 H           2.5560    3.2869    0.0000 H       1  UNL1        0.0660
     34 H           2.3291    2.4400    0.0000 H       1  UNL1        0.0660
     35 H           3.1760    2.2131    0.0000 H       1  UNL1        0.0660
     36 H           7.7522    2.2131    0.0000 H       1  UNL1        0.0660
     37 H           8.5991    2.4400    0.0000 H       1  UNL1        0.0660
     38 H           8.3722    3.2869    0.0000 H       1  UNL1        0.0660
     39 H           5.1350   -4.5600    0.0000 H       1  UNL1        0.2923
     40 H           2.3100   -2.2131    0.0000 H       1  UNL1        0.0660
     41 H           1.4631   -2.4400    0.0000 H       1  UNL1        0.0660
     42 H           1.6900   -3.2869    0.0000 H       1  UNL1        0.0660
@<TRIPOS>BOND
     1     1    14    1
     2     1    20    1
     3     2    15    1
     4     2    21    1
     5     3    17    1
     6     3    22    1
     7     4    16    1
     8     4    32    1
     9     5    19    1
    10     5    39    1
    11     6     7    1
    12     6     8    1
    13     6    23    1
    14     6    24    1
    15     7     9    1
    16     7    25    1
    17     7    26    1
    18     8    10   ar
    19     8    11   ar
    20     9    12   ar
    21     9    13   ar
    22    10    15   ar
    23    10    27    1
    24    11    14   ar
    25    11    28    1
    26    12    17   ar
    27    12    29    1
    28    13    18   ar
    29    13    30    1
    30    14    16   ar
    31    15    16   ar
    32    17    19   ar
    33    18    19   ar
    34    18    31    1
    35    20    33    1
    36    20    34    1
    37    20    35    1
    38    21    36    1
    39    21    37    1
    40    21    38    1
    41    22    40    1
    42    22    41    1
    43    22    42    1
