@<TRIPOS>MOLECULE
IMPHY007385
 15 15 0 0 0
SMALL
GASTEIGER

@<TRIPOS>ATOM
      1 O           2.0000    1.4400    0.0000 O.2     1  UNL1       -0.2704
      2 N           3.7320   -1.5600    0.0000 N.ar    1  UNL1       -0.2625
      3 N           3.7320    1.4400    0.0000 N.am    1  UNL1       -0.3253
      4 C           2.8660   -0.0600    0.0000 C.ar    1  UNL1        0.0545
      5 C           2.0000   -0.5600    0.0000 C.ar    1  UNL1       -0.0467
      6 C           3.7320   -0.5600    0.0000 C.ar    1  UNL1        0.0396
      7 C           2.0000   -1.5600    0.0000 C.ar    1  UNL1       -0.0429
      8 C           2.8660    0.9400    0.0000 C.2     1  UNL1        0.2430
      9 C           2.8660   -2.0600    0.0000 C.ar    1  UNL1        0.0276
     10 H           1.4631   -0.2500    0.0000 H       1  UNL1        0.0626
     11 H           4.2690   -0.2500    0.0000 H       1  UNL1        0.0837
     12 H           1.4631   -1.8700    0.0000 H       1  UNL1        0.0633
     13 H           2.8660   -2.6800    0.0000 H       1  UNL1        0.0829
     14 H           3.7320    2.0600    0.0000 H       1  UNL1        0.1453
     15 H           4.2690    1.1300    0.0000 H       1  UNL1        0.1453
@<TRIPOS>BOND
     1     1     8    2
     2     2     6   ar
     3     2     9   ar
     4     3     8   am
     5     3    14    1
     6     3    15    1
     7     4     5   ar
     8     4     6   ar
     9     4     8    1
    10     5     7   ar
    11     5    10    1
    12     6    11    1
    13     7     9   ar
    14     7    12    1
    15     9    13    1
