@<TRIPOS>MOLECULE
IMPHY010454
 67 72 0 0 0
SMALL
GASTEIGER

@<TRIPOS>ATOM
      1 O           6.6606   -2.2445    0.0000 O.3     1  UNL1       -0.3730
      2 O           6.9088    0.0339    0.0000 O.3     1  UNL1       -0.3884
      3 O           2.5405   -1.4630    0.0000 O.3     1  UNL1       -0.3911
      4 O           4.2986   -4.5354    0.0000 O.3     1  UNL1       -0.3911
      5 O           2.4648    4.1854    0.0000 O.2     1  UNL1       -0.4708
      6 C           4.3107   -1.4661    0.0000 C.3     1  UNL1        0.0036
      7 C           5.1767   -1.9661    0.0000 C.3     1  UNL1        0.0056
      8 C           4.3107   -0.4661    0.0000 C.3     1  UNL1       -0.0213
      9 C           5.1767    0.0339    0.0000 C.3     1  UNL1        0.0212
     10 C           5.1928   -3.0076    0.0000 C.3     1  UNL1        0.0231
     11 C           6.0427   -1.4661    0.0000 C.3     1  UNL1        0.0894
     12 C           6.0427   -0.4661    0.0000 C.3     1  UNL1        0.0909
     13 C           3.4007   -1.9730    0.0000 C.3     1  UNL1        0.0636
     14 C           5.1928    1.0754    0.0000 C.2     1  UNL1       -0.0582
     15 C           4.2947    1.6032    0.0000 C.3     1  UNL1       -0.0033
     16 C           3.4007    0.0407    0.0000 C.3     1  UNL1       -0.0480
     17 C           4.2947   -3.5354    0.0000 C.3     1  UNL1        0.0654
     18 C           6.1808   -3.1148    0.0000 C.3     1  UNL1        0.0562
     19 C           3.3926   -3.0146    0.0000 C.3     1  UNL1        0.0004
     20 C           3.3926    1.0823    0.0000 C.3     1  UNL1       -0.0430
     21 C           3.4446   -0.9661    0.0000 C.3     1  UNL1       -0.0566
     22 C           6.0427    0.5339    0.0000 C.3     1  UNL1       -0.0531
     23 C           4.5204    2.6137    0.0000 C.3     1  UNL1       -0.0004
     24 C           5.7027   -3.8678    0.0000 C.3     1  UNL1       -0.0547
     25 C           5.9658    1.7643    0.0000 C.2     1  UNL1       -0.0830
     26 C           5.5511    2.7131    0.0000 C.3     1  UNL1       -0.0267
     27 C           3.4326    2.1098    0.0000 C.3     1  UNL1       -0.0553
     28 C           3.8583    3.3631    0.0000 C.ar    1  UNL1       -0.0055
     29 C           4.0755    4.3393    0.0000 C.ar    1  UNL1       -0.0204
     30 C           2.8629    3.2680    0.0000 C.ar    1  UNL1        0.0951
     31 C           3.2142    4.8474    0.0000 C.ar    1  UNL1        0.0920
     32 H           4.4406   -2.3911    0.0000 H       1  UNL1        0.0340
     33 H           5.0468   -0.8911    0.0000 H       1  UNL1        0.0316
     34 H           6.8453   -1.1863    0.0000 H       1  UNL1        0.0625
     35 H           6.5797   -0.7761    0.0000 H       1  UNL1        0.0628
     36 H           2.8608   -2.2778    0.0000 H       1  UNL1        0.0600
     37 H           2.7890    0.1421    0.0000 H       1  UNL1        0.0269
     38 H           3.1961   -0.5446    0.0000 H       1  UNL1        0.0269
     39 H           4.8334   -3.8423    0.0000 H       1  UNL1        0.0600
     40 H           6.0334   -3.7170    0.0000 H       1  UNL1        0.0566
     41 H           6.7584   -3.3401    0.0000 H       1  UNL1        0.0566
     42 H           2.7826   -2.9038    0.0000 H       1  UNL1        0.0315
     43 H           3.1791   -3.5966    0.0000 H       1  UNL1        0.0315
     44 H           3.1791    1.6644    0.0000 H       1  UNL1        0.0274
     45 H           2.7826    0.9715    0.0000 H       1  UNL1        0.0274
     46 H           3.7546   -0.4292    0.0000 H       1  UNL1        0.0236
     47 H           2.9077   -0.6561    0.0000 H       1  UNL1        0.0236
     48 H           3.1346   -1.5030    0.0000 H       1  UNL1        0.0236
     49 H           6.3527   -0.0030    0.0000 H       1  UNL1        0.0239
     50 H           6.5797    0.8439    0.0000 H       1  UNL1        0.0239
     51 H           5.7327    1.0708    0.0000 H       1  UNL1        0.0239
     52 H           4.7478    3.1905    0.0000 H       1  UNL1        0.0361
     53 H           5.1694   -4.1840    0.0000 H       1  UNL1        0.0237
     54 H           6.0189   -4.4011    0.0000 H       1  UNL1        0.0237
     55 H           6.2360   -3.5516    0.0000 H       1  UNL1        0.0237
     56 H           6.5715    1.6318    0.0000 H       1  UNL1        0.0572
     57 H           6.1422    2.9003    0.0000 H       1  UNL1        0.0314
     58 H           5.4271    3.3206    0.0000 H       1  UNL1        0.0314
     59 H           3.7467    2.6443    0.0000 H       1  UNL1        0.0238
     60 H           2.8980    2.4239    0.0000 H       1  UNL1        0.0238
     61 H           3.1184    1.5753    0.0000 H       1  UNL1        0.0238
     62 H           7.4457   -0.2761    0.0000 H       1  UNL1        0.2099
     63 H           2.0000   -1.7668    0.0000 H       1  UNL1        0.2098
     64 H           3.7628   -4.8474    0.0000 H       1  UNL1        0.2098
     65 H           4.6442    4.5861    0.0000 H       1  UNL1        0.0652
     66 H           2.5478    2.7340    0.0000 H       1  UNL1        0.1032
     67 H           3.1552    5.4646    0.0000 H       1  UNL1        0.1029
@<TRIPOS>BOND
     1     1    11    1
     2     1    18    1
     3    12     2    1
     4     2    62    1
     5    13     3    1
     6     3    63    1
     7    17     4    1
     8     4    64    1
     9     5    30   ar
    10     5    31   ar
    11     6     7    1
    12     6     8    1
    13     6    13    1
    14     6    21    1
    15     7    10    1
    16     7    11    1
    17     7    32    1
    18     8     9    1
    19     8    16    1
    20     8    33    1
    21     9    12    1
    22     9    14    1
    23     9    22    1
    24    10    17    1
    25    10    18    1
    26    10    24    1
    27    11    12    1
    28    11    34    1
    29    12    35    1
    30    13    19    1
    31    13    36    1
    32    14    15    1
    33    14    25    2
    34    15    20    1
    35    15    23    1
    36    15    27    1
    37    16    20    1
    38    16    37    1
    39    16    38    1
    40    17    19    1
    41    17    39    1
    42    18    40    1
    43    18    41    1
    44    19    42    1
    45    19    43    1
    46    20    44    1
    47    20    45    1
    48    21    46    1
    49    21    47    1
    50    21    48    1
    51    22    49    1
    52    22    50    1
    53    22    51    1
    54    23    26    1
    55    23    28    1
    56    23    52    1
    57    24    53    1
    58    24    54    1
    59    24    55    1
    60    25    26    1
    61    25    56    1
    62    26    57    1
    63    26    58    1
    64    27    59    1
    65    27    60    1
    66    27    61    1
    67    28    29   ar
    68    28    30   ar
    69    29    31   ar
    70    29    65    1
    71    30    66    1
    72    31    67    1
