@<TRIPOS>MOLECULE
IMPHY004557
 34 36 0 0 0
SMALL
GASTEIGER

@<TRIPOS>ATOM
      1 O           6.3580   -1.4917    0.0000 O.2     1  UNL1       -0.4618
      2 O           2.8660    0.5429    0.0000 O.3     1  UNL1       -0.4885
      3 O           4.5981    1.5429    0.0000 O.3     1  UNL1       -0.5027
      4 O           6.3465    1.5775    0.0000 O.2     1  UNL1       -0.2863
      5 O           2.8660   -1.4571    0.0000 O.3     1  UNL1       -0.5031
      6 O          10.7205    2.0771    0.0000 O.3     1  UNL1       -0.5068
      7 C           5.4641    0.0429    0.0000 C.ar    1  UNL1        0.1097
      8 C           5.4641   -0.9571    0.0000 C.ar    1  UNL1        0.1456
      9 C           7.2641    0.0637    0.0000 C.ar    1  UNL1        0.0644
     10 C           6.3580    0.5776    0.0000 C.ar    1  UNL1        0.2038
     11 C           4.5981    0.5429    0.0000 C.ar    1  UNL1        0.1768
     12 C           8.1282    0.5671    0.0000 C.ar    1  UNL1       -0.0110
     13 C           3.7320    0.0429    0.0000 C.ar    1  UNL1        0.2040
     14 C           4.5981   -1.4571    0.0000 C.ar    1  UNL1        0.0267
     15 C           7.2641   -0.9779    0.0000 C.ar    1  UNL1        0.1038
     16 C           3.7320   -0.9571    0.0000 C.ar    1  UNL1        0.1657
     17 C           8.9962    0.0704    0.0000 C.ar    1  UNL1       -0.0504
     18 C           8.1244    1.5671    0.0000 C.ar    1  UNL1       -0.0504
     19 C           9.8602    0.5738    0.0000 C.ar    1  UNL1       -0.0196
     20 C           8.9884    2.0704    0.0000 C.ar    1  UNL1       -0.0196
     21 C           9.8564    1.5737    0.0000 C.ar    1  UNL1        0.1169
     22 C           2.0000    0.0429    0.0000 C.3     1  UNL1        0.0791
     23 H           4.5981   -2.0771    0.0000 H       1  UNL1        0.0692
     24 H           7.7998   -1.2900    0.0000 H       1  UNL1        0.1037
     25 H           8.9985   -0.5496    0.0000 H       1  UNL1        0.0625
     26 H           7.5862    1.8750    0.0000 H       1  UNL1        0.0625
     27 H          10.3984    0.2658    0.0000 H       1  UNL1        0.0654
     28 H           8.9860    2.6904    0.0000 H       1  UNL1        0.0654
     29 H           4.0611    1.8529    0.0000 H       1  UNL1        0.2923
     30 H           2.8660   -2.0771    0.0000 H       1  UNL1        0.2923
     31 H           1.6900    0.5799    0.0000 H       1  UNL1        0.0660
     32 H           1.4631   -0.2671    0.0000 H       1  UNL1        0.0660
     33 H           2.3100   -0.4940    0.0000 H       1  UNL1        0.0660
     34 H          11.2586    1.7692    0.0000 H       1  UNL1        0.2921
@<TRIPOS>BOND
     1     1     8   ar
     2     1    15   ar
     3     2    13    1
     4     2    22    1
     5     3    11    1
     6     3    29    1
     7     4    10    2
     8     5    16    1
     9     5    30    1
    10     6    21    1
    11     6    34    1
    12     7     8   ar
    13     7    10   ar
    14     7    11   ar
    15     8    14   ar
    16     9    10   ar
    17     9    12    1
    18     9    15   ar
    19    11    13   ar
    20    12    17   ar
    21    12    18   ar
    22    13    16   ar
    23    14    16   ar
    24    14    23    1
    25    15    24    1
    26    17    19   ar
    27    17    25    1
    28    18    20   ar
    29    18    26    1
    30    19    21   ar
    31    19    27    1
    32    20    21   ar
    33    20    28    1
    34    22    31    1
    35    22    32    1
    36    22    33    1
