@<TRIPOS>MOLECULE
IMPHY013981
 70 69 0 0 0
SMALL
GASTEIGER

@<TRIPOS>ATOM
      1 O           2.8660   -0.7500    0.0000 O.2     1  UNL1       -0.2977
      2 C          12.3923    0.7500    0.0000 C.3     1  UNL1       -0.0531
      3 C          11.5263    0.2500    0.0000 C.3     1  UNL1       -0.0531
      4 C          13.2583    0.2500    0.0000 C.3     1  UNL1       -0.0531
      5 C          10.6603    0.7500    0.0000 C.3     1  UNL1       -0.0531
      6 C          14.1244    0.7500    0.0000 C.3     1  UNL1       -0.0531
      7 C           9.7942    0.2500    0.0000 C.3     1  UNL1       -0.0531
      8 C          14.9904    0.2500    0.0000 C.3     1  UNL1       -0.0531
      9 C           8.9282    0.7500    0.0000 C.3     1  UNL1       -0.0531
     10 C          15.8564    0.7500    0.0000 C.3     1  UNL1       -0.0531
     11 C           8.0622    0.2500    0.0000 C.3     1  UNL1       -0.0531
     12 C          16.7224    0.2500    0.0000 C.3     1  UNL1       -0.0531
     13 C           7.1962    0.7500    0.0000 C.3     1  UNL1       -0.0531
     14 C          17.5885    0.7500    0.0000 C.3     1  UNL1       -0.0531
     15 C           6.3301    0.2500    0.0000 C.3     1  UNL1       -0.0530
     16 C          18.4545    0.2500    0.0000 C.3     1  UNL1       -0.0531
     17 C           5.4641    0.7500    0.0000 C.3     1  UNL1       -0.0527
     18 C          19.3205    0.7500    0.0000 C.3     1  UNL1       -0.0533
     19 C           4.5981    0.2500    0.0000 C.3     1  UNL1       -0.0464
     20 C          20.1865    0.2500    0.0000 C.3     1  UNL1       -0.0559
     21 C           3.7320    0.7500    0.0000 C.3     1  UNL1        0.0055
     22 C          21.0526    0.7500    0.0000 C.3     1  UNL1       -0.0653
     23 C           2.8660    0.2500    0.0000 C.2     1  UNL1        0.1303
     24 C           2.0000    0.7500    0.0000 C.3     1  UNL1       -0.0061
     25 H          12.7908    1.2250    0.0000 H       1  UNL1        0.0265
     26 H          11.9938    1.2250    0.0000 H       1  UNL1        0.0265
     27 H          11.1278   -0.2249    0.0000 H       1  UNL1        0.0265
     28 H          11.9248   -0.2249    0.0000 H       1  UNL1        0.0265
     29 H          12.8598   -0.2249    0.0000 H       1  UNL1        0.0265
     30 H          13.6569   -0.2249    0.0000 H       1  UNL1        0.0265
     31 H          11.0588    1.2250    0.0000 H       1  UNL1        0.0265
     32 H          10.2617    1.2250    0.0000 H       1  UNL1        0.0265
     33 H          14.5229    1.2250    0.0000 H       1  UNL1        0.0265
     34 H          13.7258    1.2250    0.0000 H       1  UNL1        0.0265
     35 H           9.3957   -0.2249    0.0000 H       1  UNL1        0.0265
     36 H          10.1928   -0.2249    0.0000 H       1  UNL1        0.0265
     37 H          14.5919   -0.2249    0.0000 H       1  UNL1        0.0265
     38 H          15.3889   -0.2249    0.0000 H       1  UNL1        0.0265
     39 H           9.3267    1.2250    0.0000 H       1  UNL1        0.0265
     40 H           8.5297    1.2250    0.0000 H       1  UNL1        0.0265
     41 H          16.2549    1.2250    0.0000 H       1  UNL1        0.0265
     42 H          15.4579    1.2250    0.0000 H       1  UNL1        0.0265
     43 H           7.6636   -0.2249    0.0000 H       1  UNL1        0.0265
     44 H           8.4607   -0.2249    0.0000 H       1  UNL1        0.0265
     45 H          16.3239   -0.2249    0.0000 H       1  UNL1        0.0265
     46 H          17.1210   -0.2249    0.0000 H       1  UNL1        0.0265
     47 H           7.5947    1.2250    0.0000 H       1  UNL1        0.0265
     48 H           6.7976    1.2250    0.0000 H       1  UNL1        0.0265
     49 H          17.9870    1.2250    0.0000 H       1  UNL1        0.0265
     50 H          17.1899    1.2250    0.0000 H       1  UNL1        0.0265
     51 H           5.9316   -0.2249    0.0000 H       1  UNL1        0.0265
     52 H           6.7287   -0.2249    0.0000 H       1  UNL1        0.0265
     53 H          18.0560   -0.2249    0.0000 H       1  UNL1        0.0265
     54 H          18.8530   -0.2249    0.0000 H       1  UNL1        0.0265
     55 H           5.8626    1.2250    0.0000 H       1  UNL1        0.0265
     56 H           5.0656    1.2250    0.0000 H       1  UNL1        0.0265
     57 H          19.7190    1.2250    0.0000 H       1  UNL1        0.0265
     58 H          18.9220    1.2250    0.0000 H       1  UNL1        0.0265
     59 H           4.1996   -0.2249    0.0000 H       1  UNL1        0.0269
     60 H           4.9966   -0.2249    0.0000 H       1  UNL1        0.0269
     61 H          19.7880   -0.2249    0.0000 H       1  UNL1        0.0263
     62 H          20.5851   -0.2249    0.0000 H       1  UNL1        0.0263
     63 H           4.1306    1.2250    0.0000 H       1  UNL1        0.0341
     64 H           3.3335    1.2250    0.0000 H       1  UNL1        0.0341
     65 H          21.3626    0.2131    0.0000 H       1  UNL1        0.0230
     66 H          21.5895    1.0600    0.0000 H       1  UNL1        0.0230
     67 H          20.7426    1.2869    0.0000 H       1  UNL1        0.0230
     68 H           2.3100    1.2869    0.0000 H       1  UNL1        0.0306
     69 H           1.4631    1.0600    0.0000 H       1  UNL1        0.0306
     70 H           1.6900    0.2131    0.0000 H       1  UNL1        0.0306
@<TRIPOS>BOND
     1     1    23    2
     2     2     3    1
     3     2     4    1
     4     2    25    1
     5     2    26    1
     6     3     5    1
     7     3    27    1
     8     3    28    1
     9     4     6    1
    10     4    29    1
    11     4    30    1
    12     5     7    1
    13     5    31    1
    14     5    32    1
    15     6     8    1
    16     6    33    1
    17     6    34    1
    18     7     9    1
    19     7    35    1
    20     7    36    1
    21     8    10    1
    22     8    37    1
    23     8    38    1
    24     9    11    1
    25     9    39    1
    26     9    40    1
    27    10    12    1
    28    10    41    1
    29    10    42    1
    30    11    13    1
    31    11    43    1
    32    11    44    1
    33    12    14    1
    34    12    45    1
    35    12    46    1
    36    13    15    1
    37    13    47    1
    38    13    48    1
    39    14    16    1
    40    14    49    1
    41    14    50    1
    42    15    17    1
    43    15    51    1
    44    15    52    1
    45    16    18    1
    46    16    53    1
    47    16    54    1
    48    17    19    1
    49    17    55    1
    50    17    56    1
    51    18    20    1
    52    18    57    1
    53    18    58    1
    54    19    21    1
    55    19    59    1
    56    19    60    1
    57    20    22    1
    58    20    61    1
    59    20    62    1
    60    21    23    1
    61    21    63    1
    62    21    64    1
    63    22    65    1
    64    22    66    1
    65    22    67    1
    66    23    24    1
    67    24    68    1
    68    24    69    1
    69    24    70    1
