@<TRIPOS>MOLECULE
IMPHY017587
 37 39 0 0 0
SMALL
GASTEIGER

@<TRIPOS>ATOM
      1 O           5.4050    0.9301    0.0000 O.2     1  UNL1       -0.2974
      2 C           3.6730   -0.0699    0.0000 C.3     1  UNL1       -0.0193
      3 C           4.5092   -1.5182    0.0000 C.3     1  UNL1       -0.0400
      4 C           2.8368   -1.5182    0.0000 C.3     1  UNL1       -0.0400
      5 C           2.9819   -1.9533    0.0000 C.3     1  UNL1       -0.0400
      6 C           4.5092   -0.5527    0.0000 C.3     1  UNL1       -0.0439
      7 C           2.8368   -0.5527    0.0000 C.3     1  UNL1       -0.0439
      8 C           2.9819   -0.9080    0.0000 C.3     1  UNL1       -0.0439
      9 C           3.6730   -1.8210    0.0000 C.3     1  UNL1       -0.0473
     10 C           3.8876   -2.4301    0.0000 C.3     1  UNL1       -0.0473
     11 C           2.0000   -2.0010    0.0000 C.3     1  UNL1       -0.0473
     12 C           3.6730    0.9301    0.0000 C.3     1  UNL1        0.0201
     13 C           2.8070    1.4301    0.0000 C.3     1  UNL1       -0.0552
     14 C           4.5390    1.4301    0.0000 C.2     1  UNL1        0.1336
     15 C           4.5390    2.4301    0.0000 C.3     1  UNL1       -0.0058
     16 H           5.1016   -1.7009    0.0000 H       1  UNL1        0.0301
     17 H           3.3444   -1.1622    0.0000 H       1  UNL1        0.0301
     18 H           2.8478   -2.5586    0.0000 H       1  UNL1        0.0301
     19 H           5.1198   -0.6603    0.0000 H       1  UNL1        0.0273
     20 H           4.7212    0.0299    0.0000 H       1  UNL1        0.0273
     21 H           2.6247    0.0299    0.0000 H       1  UNL1        0.0273
     22 H           2.2262   -0.6603    0.0000 H       1  UNL1        0.0273
     23 H           2.6383   -0.3920    0.0000 H       1  UNL1        0.0273
     24 H           2.3885   -1.0875    0.0000 H       1  UNL1        0.0273
     25 H           3.3030   -2.3185    0.0000 H       1  UNL1        0.0271
     26 H           4.0430   -2.3185    0.0000 H       1  UNL1        0.0271
     27 H           3.5782   -2.9674    0.0000 H       1  UNL1        0.0271
     28 H           4.4127   -2.7597    0.0000 H       1  UNL1        0.0271
     29 H           1.5188   -1.6101    0.0000 H       1  UNL1        0.0271
     30 H           1.8068   -2.5901    0.0000 H       1  UNL1        0.0271
     31 H           3.1361    0.6201    0.0000 H       1  UNL1        0.0380
     32 H           3.1170    1.9670    0.0000 H       1  UNL1        0.0237
     33 H           2.2700    1.7401    0.0000 H       1  UNL1        0.0237
     34 H           2.4970    0.8932    0.0000 H       1  UNL1        0.0237
     35 H           5.1590    2.4301    0.0000 H       1  UNL1        0.0306
     36 H           4.5390    3.0501    0.0000 H       1  UNL1        0.0306
     37 H           3.9190    2.4301    0.0000 H       1  UNL1        0.0306
@<TRIPOS>BOND
     1     1    14    2
     2     2     6    1
     3     2     7    1
     4     2     8    1
     5     2    12    1
     6     3     6    1
     7     3     9    1
     8     3    10    1
     9     3    16    1
    10     4     7    1
    11     4     9    1
    12     4    11    1
    13     4    17    1
    14     5     8    1
    15     5    10    1
    16     5    11    1
    17     5    18    1
    18     6    19    1
    19     6    20    1
    20     7    21    1
    21     7    22    1
    22     8    23    1
    23     8    24    1
    24     9    25    1
    25     9    26    1
    26    10    27    1
    27    10    28    1
    28    11    29    1
    29    11    30    1
    30    12    13    1
    31    12    14    1
    32    12    31    1
    33    13    32    1
    34    13    33    1
    35    13    34    1
    36    14    15    1
    37    15    35    1
    38    15    36    1
    39    15    37    1
