@<TRIPOS>MOLECULE
IMPHY013679
 253 259 0 0 0
SMALL
GASTEIGER

@<TRIPOS>ATOM
      1 O          18.9914   -5.0000    0.0000 O.3     1  UNL1       -0.3401
      2 O          17.2594   -5.0000    0.0000 O.3     1  UNL1       -0.3405
      3 O          27.6517  -14.0000    0.0000 O.3     1  UNL1       -0.3378
      4 O           6.8671   11.0000    0.0000 O.3     1  UNL1       -0.3378
      5 O          25.9196  -12.0000    0.0000 O.3     1  UNL1       -0.3405
      6 O           5.1350    9.0000    0.0000 O.3     1  UNL1       -0.3405
      7 O          18.9914   -2.0000    0.0000 O.3     1  UNL1       -0.3431
      8 O          28.5177  -12.5000    0.0000 O.3     1  UNL1       -0.3405
      9 O           6.0010   12.5000    0.0000 O.3     1  UNL1       -0.3405
     10 O          27.6517  -12.0000    0.0000 O.3     1  UNL1       -0.3384
     11 O           6.8671    9.0000    0.0000 O.3     1  UNL1       -0.3384
     12 O          14.6613   -5.5000    0.0000 O.3     1  UNL1       -0.3460
     13 O          25.9196  -15.0000    0.0000 O.3     1  UNL1       -0.3864
     14 O           5.1350   12.0000    0.0000 O.3     1  UNL1       -0.3864
     15 O          18.9914   -7.0000    0.0000 O.3     1  UNL1       -0.3841
     16 O          15.5273   -7.0000    0.0000 O.3     1  UNL1       -0.3865
     17 O          17.2594   -8.0000    0.0000 O.3     1  UNL1       -0.3864
     18 O          17.2594   -4.0000    0.0000 O.3     1  UNL1       -0.3866
     19 O          12.9292   -5.5000    0.0000 O.3     1  UNL1       -0.3430
     20 O          24.1876  -14.0000    0.0000 O.3     1  UNL1       -0.3865
     21 O           3.4030   11.0000    0.0000 O.3     1  UNL1       -0.3865
     22 O          20.7235   -4.0000    0.0000 O.3     1  UNL1       -0.3841
     23 O          20.7235   -2.0000    0.0000 O.3     1  UNL1       -0.3444
     24 O          29.3837  -15.0000    0.0000 O.3     1  UNL1       -0.3841
     25 O           8.5991   12.0000    0.0000 O.3     1  UNL1       -0.3841
     26 O          31.1158  -14.0000    0.0000 O.3     1  UNL1       -0.3864
     27 O           8.5991   14.0000    0.0000 O.3     1  UNL1       -0.3864
     28 O          31.1158  -12.0000    0.0000 O.3     1  UNL1       -0.3865
     29 O           6.8671   15.0000    0.0000 O.3     1  UNL1       -0.3865
     30 O          12.9292   -2.5000    0.0000 O.3     1  UNL1       -0.4526
     31 O          14.6613   -3.5000    0.0000 O.3     1  UNL1       -0.3830
     32 O          24.1876  -11.0000    0.0000 O.3     1  UNL1       -0.3924
     33 O           2.5369    9.5000    0.0000 O.3     1  UNL1       -0.3924
     34 O          11.1972   -3.5000    0.0000 O.3     1  UNL1       -0.3855
     35 O          30.2497  -10.5000    0.0000 O.3     1  UNL1       -0.3924
     36 O           5.1350   15.0000    0.0000 O.3     1  UNL1       -0.3924
     37 O          11.1972   -2.5000    0.0000 O.2     1  UNL1       -0.2453
     38 C          26.7856  -13.5000    0.0000 C.3     1  UNL1        0.1406
     39 C           6.0010   10.5000    0.0000 C.3     1  UNL1        0.1406
     40 C          18.9914   -4.0000    0.0000 C.3     1  UNL1        0.1205
     41 C          18.1254   -5.5000    0.0000 C.3     1  UNL1        0.1884
     42 C          25.9196  -14.0000    0.0000 C.3     1  UNL1        0.1144
     43 C           5.1350   11.0000    0.0000 C.3     1  UNL1        0.1144
     44 C          18.1254   -6.5000    0.0000 C.3     1  UNL1        0.1341
     45 C          16.3933   -5.5000    0.0000 C.3     1  UNL1        0.1134
     46 C          17.2594   -7.0000    0.0000 C.3     1  UNL1        0.1141
     47 C          16.3933   -6.5000    0.0000 C.3     1  UNL1        0.1119
     48 C          18.1254   -3.5000    0.0000 C.3     1  UNL1        0.1098
     49 C          26.7856  -12.5000    0.0000 C.3     1  UNL1        0.1893
     50 C           6.0010    9.5000    0.0000 C.3     1  UNL1        0.1893
     51 C          25.0536  -13.5000    0.0000 C.3     1  UNL1        0.1119
     52 C           4.2690   10.5000    0.0000 C.3     1  UNL1        0.1119
     53 C          19.8574   -3.5000    0.0000 C.3     1  UNL1        0.1345
     54 C          25.0536  -12.5000    0.0000 C.3     1  UNL1        0.1130
     55 C           4.2690    9.5000    0.0000 C.3     1  UNL1        0.1130
     56 C          28.5177  -13.5000    0.0000 C.3     1  UNL1        0.1885
     57 C           6.8671   12.0000    0.0000 C.3     1  UNL1        0.1885
     58 C          18.1254   -2.5000    0.0000 C.3     1  UNL1        0.0873
     59 C          29.3837  -14.0000    0.0000 C.3     1  UNL1        0.1341
     60 C           7.7331   12.5000    0.0000 C.3     1  UNL1        0.1341
     61 C          19.8574   -2.5000    0.0000 C.3     1  UNL1        0.1882
     62 C          30.2497  -13.5000    0.0000 C.3     1  UNL1        0.1141
     63 C           7.7331   13.5000    0.0000 C.3     1  UNL1        0.1141
     64 C          30.2497  -12.5000    0.0000 C.3     1  UNL1        0.1119
     65 C           6.8671   14.0000    0.0000 C.3     1  UNL1        0.1119
     66 C          29.3837  -12.0000    0.0000 C.3     1  UNL1        0.1130
     67 C           6.0010   13.5000    0.0000 C.3     1  UNL1        0.1130
     68 C          15.5273   -5.0000    0.0000 C.3     1  UNL1        0.0796
     69 C          13.7953   -5.0000    0.0000 C.3     1  UNL1        0.1890
     70 C          13.7953   -4.0000    0.0000 C.3     1  UNL1        0.1451
     71 C          27.6517  -11.0000    0.0000 C.3     1  UNL1        0.0879
     72 C           6.8671    8.0000    0.0000 C.3     1  UNL1        0.0879
     73 C          12.9292   -3.5000    0.0000 C.3     1  UNL1        0.1619
     74 C          24.1876  -12.0000    0.0000 C.3     1  UNL1        0.0730
     75 C           3.4030    9.0000    0.0000 C.3     1  UNL1        0.0730
     76 C          12.0632   -4.0000    0.0000 C.3     1  UNL1        0.1205
     77 C          12.0632   -5.0000    0.0000 C.3     1  UNL1        0.0884
     78 C          17.2594   -2.0000    0.0000 C.3     1  UNL1       -0.0361
     79 C          29.3837  -11.0000    0.0000 C.3     1  UNL1        0.0730
     80 C           5.1350   14.0000    0.0000 C.3     1  UNL1        0.0730
     81 C          27.6517  -10.0000    0.0000 C.3     1  UNL1       -0.0169
     82 C           6.8671    7.0000    0.0000 C.3     1  UNL1       -0.0169
     83 C          26.6517  -11.0000    0.0000 C.3     1  UNL1       -0.0321
     84 C           7.8671    8.0000    0.0000 C.3     1  UNL1       -0.0321
     85 C          28.6517  -11.0000    0.0000 C.2     1  UNL1       -0.0599
     86 C           5.8671    8.0000    0.0000 C.2     1  UNL1       -0.0599
     87 C          11.1972   -5.5000    0.0000 C.3     1  UNL1       -0.0360
     88 C          26.7856   -9.5000    0.0000 C.3     1  UNL1       -0.0316
     89 C           7.7331    6.5000    0.0000 C.3     1  UNL1       -0.0316
     90 C          21.5895   -2.5000    0.0000 C.3     1  UNL1        0.0716
     91 C          22.4555   -2.0000    0.0000 C.2     1  UNL1       -0.0511
     92 C          26.7856   -8.5000    0.0000 C.2     1  UNL1       -0.0849
     93 C           7.7331    5.5000    0.0000 C.2     1  UNL1       -0.0849
     94 C          29.1517  -10.1340    0.0000 C.2     1  UNL1       -0.1000
     95 C           5.3671    7.1340    0.0000 C.2     1  UNL1       -0.1000
     96 C          12.0632   -2.0000    0.0000 C.2     1  UNL1        0.3350
     97 C          25.9196   -8.0000    0.0000 C.2     1  UNL1       -0.0762
     98 C           8.5991    5.0000    0.0000 C.2     1  UNL1       -0.0762
     99 C          23.3215   -2.5000    0.0000 C.2     1  UNL1       -0.0826
    100 C          22.4555   -1.0000    0.0000 C.3     1  UNL1       -0.0416
    101 C          12.0632   -1.0000    0.0000 C.2     1  UNL1        0.0296
    102 C          25.9196   -7.0000    0.0000 C.3     1  UNL1       -0.0286
    103 C           8.5991    4.0000    0.0000 C.3     1  UNL1       -0.0286
    104 C          23.3215   -3.5000    0.0000 C.3     1  UNL1       -0.0308
    105 C          25.0536   -8.5000    0.0000 C.3     1  UNL1       -0.0438
    106 C           9.4651    5.5000    0.0000 C.3     1  UNL1       -0.0438
    107 C          25.0536   -6.5000    0.0000 C.3     1  UNL1       -0.0308
    108 C          24.1876   -4.0000    0.0000 C.3     1  UNL1       -0.0286
    109 C           9.4651    3.5000    0.0000 C.3     1  UNL1       -0.0308
    110 C          11.1972   -0.5000    0.0000 C.2     1  UNL1       -0.0740
    111 C          12.9292   -0.5000    0.0000 C.3     1  UNL1       -0.0332
    112 C          24.1876   -5.0000    0.0000 C.2     1  UNL1       -0.0762
    113 C          11.1972    0.5000    0.0000 C.3     1  UNL1       -0.0303
    114 C          25.0536   -5.5000    0.0000 C.2     1  UNL1       -0.0847
    115 C          10.3312    1.0000    0.0000 C.3     1  UNL1       -0.0286
    116 C           9.4651    2.5000    0.0000 C.2     1  UNL1       -0.0847
    117 C          10.3312    2.0000    0.0000 C.2     1  UNL1       -0.0762
    118 C          23.3215   -5.5000    0.0000 C.3     1  UNL1       -0.0438
    119 C          11.1972    2.5000    0.0000 C.3     1  UNL1       -0.0438
    120 H          26.7856  -14.1200    0.0000 H       1  UNL1        0.0675
    121 H           6.0010   11.1200    0.0000 H       1  UNL1        0.0675
    122 H          18.4545   -4.3100    0.0000 H       1  UNL1        0.0651
    123 H          18.1254   -4.8800    0.0000 H       1  UNL1        0.0938
    124 H          25.3827  -14.3100    0.0000 H       1  UNL1        0.0648
    125 H           4.5981   11.3100    0.0000 H       1  UNL1        0.0648
    126 H          18.1254   -7.1200    0.0000 H       1  UNL1        0.0671
    127 H          16.3933   -4.8800    0.0000 H       1  UNL1        0.0647
    128 H          16.7224   -7.3100    0.0000 H       1  UNL1        0.0648
    129 H          15.8564   -6.1900    0.0000 H       1  UNL1        0.0647
    130 H          18.1254   -4.1200    0.0000 H       1  UNL1        0.0646
    131 H          27.3226  -12.8100    0.0000 H       1  UNL1        0.0938
    132 H           6.5380    9.8100    0.0000 H       1  UNL1        0.0938
    133 H          25.0536  -14.1200    0.0000 H       1  UNL1        0.0647
    134 H           4.2690   11.1200    0.0000 H       1  UNL1        0.0647
    135 H          19.8574   -4.1200    0.0000 H       1  UNL1        0.0671
    136 H          25.0536  -11.8800    0.0000 H       1  UNL1        0.0647
    137 H           4.2690    8.8800    0.0000 H       1  UNL1        0.0647
    138 H          28.5177  -14.1200    0.0000 H       1  UNL1        0.0938
    139 H           7.4040   11.6900    0.0000 H       1  UNL1        0.0938
    140 H          18.1254   -1.8800    0.0000 H       1  UNL1        0.0621
    141 H          29.9207  -14.3100    0.0000 H       1  UNL1        0.0671
    142 H           8.2700   12.8100    0.0000 H       1  UNL1        0.0671
    143 H          20.3944   -2.8100    0.0000 H       1  UNL1        0.0937
    144 H          30.2497  -14.1200    0.0000 H       1  UNL1        0.0648
    145 H           8.2700   13.1900    0.0000 H       1  UNL1        0.0648
    146 H          30.7867  -12.8100    0.0000 H       1  UNL1        0.0647
    147 H           7.4040   14.3100    0.0000 H       1  UNL1        0.0647
    148 H          28.8468  -11.6900    0.0000 H       1  UNL1        0.0647
    149 H           5.4641   13.1900    0.0000 H       1  UNL1        0.0647
    150 H          15.9258   -4.5250    0.0000 H       1  UNL1        0.0587
    151 H          15.1288   -4.5250    0.0000 H       1  UNL1        0.0587
    152 H          13.7953   -5.6200    0.0000 H       1  UNL1        0.0938
    153 H          14.3322   -4.3100    0.0000 H       1  UNL1        0.0682
    154 H          13.4662   -3.1900    0.0000 H       1  UNL1        0.0789
    155 H          23.5770  -11.8923    0.0000 H       1  UNL1        0.0584
    156 H          23.9755  -12.5826    0.0000 H       1  UNL1        0.0584
    157 H           3.0044    8.5250    0.0000 H       1  UNL1        0.0584
    158 H           3.8015    8.5250    0.0000 H       1  UNL1        0.0584
    159 H          11.5263   -4.3100    0.0000 H       1  UNL1        0.0657
    160 H          12.0632   -5.6200    0.0000 H       1  UNL1        0.0621
    161 H          17.5694   -1.4631    0.0000 H       1  UNL1        0.0255
    162 H          16.7224   -1.6900    0.0000 H       1  UNL1        0.0255
    163 H          16.9494   -2.5369    0.0000 H       1  UNL1        0.0255
    164 H          29.1717  -10.4174    0.0000 H       1  UNL1        0.0584
    165 H          28.7731  -11.1077    0.0000 H       1  UNL1        0.0584
    166 H           4.5244   14.1077    0.0000 H       1  UNL1        0.0584
    167 H           4.9230   13.4174    0.0000 H       1  UNL1        0.0584
    168 H          25.3827  -15.3100    0.0000 H       1  UNL1        0.2100
    169 H           4.5981   12.3100    0.0000 H       1  UNL1        0.2100
    170 H          18.9914   -7.6200    0.0000 H       1  UNL1        0.2101
    171 H          15.5273   -7.6200    0.0000 H       1  UNL1        0.2100
    172 H          16.7224   -8.3100    0.0000 H       1  UNL1        0.2100
    173 H          28.2623  -10.1077    0.0000 H       1  UNL1        0.0299
    174 H          27.8637   -9.4174    0.0000 H       1  UNL1        0.0299
    175 H           6.2565    7.1077    0.0000 H       1  UNL1        0.0299
    176 H           6.6550    6.4174    0.0000 H       1  UNL1        0.0299
    177 H          16.7224   -3.6900    0.0000 H       1  UNL1        0.2100
    178 H          23.6506  -13.6900    0.0000 H       1  UNL1        0.2100
    179 H           3.4030   11.6200    0.0000 H       1  UNL1        0.2100
    180 H          20.7235   -4.6200    0.0000 H       1  UNL1        0.2101
    181 H          29.9207  -15.3100    0.0000 H       1  UNL1        0.2101
    182 H           9.1360   12.3100    0.0000 H       1  UNL1        0.2101
    183 H          26.6517  -10.3800    0.0000 H       1  UNL1        0.0260
    184 H          26.0317  -11.0000    0.0000 H       1  UNL1        0.0260
    185 H          26.6517  -11.6200    0.0000 H       1  UNL1        0.0260
    186 H           7.8671    7.3800    0.0000 H       1  UNL1        0.0260
    187 H           8.4871    8.0000    0.0000 H       1  UNL1        0.0260
    188 H           7.8671    8.6200    0.0000 H       1  UNL1        0.0260
    189 H          31.6527  -13.6900    0.0000 H       1  UNL1        0.2100
    190 H           8.5991   14.6200    0.0000 H       1  UNL1        0.2100
    191 H          31.6527  -12.3100    0.0000 H       1  UNL1        0.2100
    192 H           7.4040   15.3100    0.0000 H       1  UNL1        0.2100
    193 H          28.9617  -11.5369    0.0000 H       1  UNL1        0.0594
    194 H           5.5571    8.5369    0.0000 H       1  UNL1        0.0594
    195 H          10.8872   -4.9631    0.0000 H       1  UNL1        0.0255
    196 H          10.6603   -5.8100    0.0000 H       1  UNL1        0.0255
    197 H          11.5072   -6.0369    0.0000 H       1  UNL1        0.0255
    198 H          26.1751   -9.3923    0.0000 H       1  UNL1        0.0308
    199 H          26.5736  -10.0826    0.0000 H       1  UNL1        0.0308
    200 H           8.3437    6.3923    0.0000 H       1  UNL1        0.0308
    201 H           7.9451    7.0826    0.0000 H       1  UNL1        0.0308
    202 H          21.1910   -2.9750    0.0000 H       1  UNL1        0.0608
    203 H          21.9880   -2.9750    0.0000 H       1  UNL1        0.0608
    204 H          14.6613   -2.8800    0.0000 H       1  UNL1        0.2102
    205 H          23.6506  -10.6900    0.0000 H       1  UNL1        0.2095
    206 H           2.0000    9.1900    0.0000 H       1  UNL1        0.2095
    207 H          10.6603   -3.8100    0.0000 H       1  UNL1        0.2101
    208 H          30.2497   -9.8800    0.0000 H       1  UNL1        0.2095
    209 H           4.5981   15.3100    0.0000 H       1  UNL1        0.2095
    210 H          27.3226   -8.1900    0.0000 H       1  UNL1        0.0572
    211 H           7.1962    5.1900    0.0000 H       1  UNL1        0.0572
    212 H          29.7717  -10.1340    0.0000 H       1  UNL1        0.0533
    213 H          28.8417   -9.5970    0.0000 H       1  UNL1        0.0533
    214 H           4.7471    7.1340    0.0000 H       1  UNL1        0.0533
    215 H           5.6771    6.5970    0.0000 H       1  UNL1        0.0533
    216 H          23.8585   -2.1900    0.0000 H       1  UNL1        0.0572
    217 H          23.0755   -1.0000    0.0000 H       1  UNL1        0.0275
    218 H          22.4555   -0.3800    0.0000 H       1  UNL1        0.0275
    219 H          21.8355   -1.0000    0.0000 H       1  UNL1        0.0275
    220 H          26.5302   -7.1077    0.0000 H       1  UNL1        0.0313
    221 H          26.1317   -6.4174    0.0000 H       1  UNL1        0.0313
    222 H           7.9885    4.1077    0.0000 H       1  UNL1        0.0313
    223 H           8.3871    3.4174    0.0000 H       1  UNL1        0.0313
    224 H          22.7110   -3.3923    0.0000 H       1  UNL1        0.0310
    225 H          23.1095   -4.0826    0.0000 H       1  UNL1        0.0310
    226 H          24.7436   -7.9631    0.0000 H       1  UNL1        0.0274
    227 H          24.5167   -8.8100    0.0000 H       1  UNL1        0.0274
    228 H          25.3636   -9.0369    0.0000 H       1  UNL1        0.0274
    229 H           9.7751    4.9631    0.0000 H       1  UNL1        0.0274
    230 H          10.0021    5.8100    0.0000 H       1  UNL1        0.0274
    231 H           9.1551    6.0369    0.0000 H       1  UNL1        0.0274
    232 H          24.4430   -6.3923    0.0000 H       1  UNL1        0.0310
    233 H          24.8415   -7.0826    0.0000 H       1  UNL1        0.0310
    234 H          24.7982   -4.1077    0.0000 H       1  UNL1        0.0313
    235 H          24.3996   -3.4174    0.0000 H       1  UNL1        0.0313
    236 H          10.0757    3.3923    0.0000 H       1  UNL1        0.0310
    237 H           9.6772    4.0826    0.0000 H       1  UNL1        0.0310
    238 H          10.6603   -0.8100    0.0000 H       1  UNL1        0.0577
    239 H          13.2392   -1.0369    0.0000 H       1  UNL1        0.0280
    240 H          13.4662   -0.1900    0.0000 H       1  UNL1        0.0280
    241 H          12.6192    0.0369    0.0000 H       1  UNL1        0.0280
    242 H          11.8078    0.3923    0.0000 H       1  UNL1        0.0311
    243 H          11.4092    1.0826    0.0000 H       1  UNL1        0.0311
    244 H          25.5905   -5.1900    0.0000 H       1  UNL1        0.0572
    245 H           9.7206    1.1077    0.0000 H       1  UNL1        0.0313
    246 H          10.1191    0.4174    0.0000 H       1  UNL1        0.0313
    247 H           8.9282    2.1900    0.0000 H       1  UNL1        0.0572
    248 H          23.0115   -4.9631    0.0000 H       1  UNL1        0.0274
    249 H          22.7846   -5.8100    0.0000 H       1  UNL1        0.0274
    250 H          23.6315   -6.0369    0.0000 H       1  UNL1        0.0274
    251 H          11.5072    1.9631    0.0000 H       1  UNL1        0.0274
    252 H          11.7341    2.8100    0.0000 H       1  UNL1        0.0274
    253 H          10.8872    3.0369    0.0000 H       1  UNL1        0.0274
@<TRIPOS>BOND
     1     1    40    1
     2     1    41    1
     3     2    41    1
     4     2    45    1
     5     3    38    1
     6     3    56    1
     7     4    39    1
     8     4    57    1
     9     5    49    1
    10     5    54    1
    11     6    50    1
    12     6    55    1
    13     7    58    1
    14     7    61    1
    15     8    56    1
    16     8    66    1
    17     9    57    1
    18     9    67    1
    19    10    49    1
    20    10    71    1
    21    11    50    1
    22    11    72    1
    23    12    68    1
    24    12    69    1
    25    13    42    1
    26    13   168    1
    27    14    43    1
    28    14   169    1
    29    15    44    1
    30    15   170    1
    31    16    47    1
    32    16   171    1
    33    17    46    1
    34    17   172    1
    35    18    48    1
    36    18   177    1
    37    19    69    1
    38    19    77    1
    39    20    51    1
    40    20   178    1
    41    21    52    1
    42    21   179    1
    43    22    53    1
    44    22   180    1
    45    23    61    1
    46    23    90    1
    47    24    59    1
    48    24   181    1
    49    25    60    1
    50    25   182    1
    51    26    62    1
    52    26   189    1
    53    27    63    1
    54    27   190    1
    55    28    64    1
    56    28   191    1
    57    29    65    1
    58    29   192    1
    59    30    73    1
    60    30    96    1
    61    31    70    1
    62    31   204    1
    63    32    74    1
    64    32   205    1
    65    33    75    1
    66    33   206    1
    67    34    76    1
    68    34   207    1
    69    35    79    1
    70    35   208    1
    71    36    80    1
    72    36   209    1
    73    37    96    2
    74    38    42    1
    75    38    49    1
    76    38   120    1
    77    39    43    1
    78    39    50    1
    79    39   121    1
    80    40    48    1
    81    40    53    1
    82    40   122    1
    83    41    44    1
    84    41   123    1
    85    42    51    1
    86    42   124    1
    87    43    52    1
    88    43   125    1
    89    44    46    1
    90    44   126    1
    91    45    47    1
    92    45    68    1
    93    45   127    1
    94    46    47    1
    95    46   128    1
    96    47   129    1
    97    48    58    1
    98    48   130    1
    99    49   131    1
   100    50   132    1
   101    51    54    1
   102    51   133    1
   103    52    55    1
   104    52   134    1
   105    53    61    1
   106    53   135    1
   107    54    74    1
   108    54   136    1
   109    55    75    1
   110    55   137    1
   111    56    59    1
   112    56   138    1
   113    57    60    1
   114    57   139    1
   115    58    78    1
   116    58   140    1
   117    59    62    1
   118    59   141    1
   119    60    63    1
   120    60   142    1
   121    61   143    1
   122    62    64    1
   123    62   144    1
   124    63    65    1
   125    63   145    1
   126    64    66    1
   127    64   146    1
   128    65    67    1
   129    65   147    1
   130    66    79    1
   131    66   148    1
   132    67    80    1
   133    67   149    1
   134    68   150    1
   135    68   151    1
   136    69    70    1
   137    69   152    1
   138    70    73    1
   139    70   153    1
   140    71    81    1
   141    71    83    1
   142    71    85    1
   143    72    82    1
   144    72    84    1
   145    72    86    1
   146    73    76    1
   147    73   154    1
   148    74   155    1
   149    74   156    1
   150    75   157    1
   151    75   158    1
   152    76    77    1
   153    76   159    1
   154    77    87    1
   155    77   160    1
   156    78   161    1
   157    78   162    1
   158    78   163    1
   159    79   164    1
   160    79   165    1
   161    80   166    1
   162    80   167    1
   163    81    88    1
   164    81   173    1
   165    81   174    1
   166    82    89    1
   167    82   175    1
   168    82   176    1
   169    83   183    1
   170    83   184    1
   171    83   185    1
   172    84   186    1
   173    84   187    1
   174    84   188    1
   175    85    94    2
   176    85   193    1
   177    86    95    2
   178    86   194    1
   179    87   195    1
   180    87   196    1
   181    87   197    1
   182    88    92    1
   183    88   198    1
   184    88   199    1
   185    89    93    1
   186    89   200    1
   187    89   201    1
   188    90    91    1
   189    90   202    1
   190    90   203    1
   191    91    99    2
   192    91   100    1
   193    92    97    2
   194    92   210    1
   195    93    98    2
   196    93   211    1
   197    94   212    1
   198    94   213    1
   199    95   214    1
   200    95   215    1
   201    96   101    1
   202    97   102    1
   203    97   105    1
   204    98   103    1
   205    98   106    1
   206    99   104    1
   207    99   216    1
   208   100   217    1
   209   100   218    1
   210   100   219    1
   211   101   110    2
   212   101   111    1
   213   102   107    1
   214   102   220    1
   215   102   221    1
   216   103   109    1
   217   103   222    1
   218   103   223    1
   219   104   108    1
   220   104   224    1
   221   104   225    1
   222   105   226    1
   223   105   227    1
   224   105   228    1
   225   106   229    1
   226   106   230    1
   227   106   231    1
   228   107   114    1
   229   107   232    1
   230   107   233    1
   231   108   112    1
   232   108   234    1
   233   108   235    1
   234   109   116    1
   235   109   236    1
   236   109   237    1
   237   110   113    1
   238   110   238    1
   239   111   239    1
   240   111   240    1
   241   111   241    1
   242   112   114    2
   243   112   118    1
   244   113   115    1
   245   113   242    1
   246   113   243    1
   247   114   244    1
   248   115   117    1
   249   115   245    1
   250   115   246    1
   251   116   117    2
   252   116   247    1
   253   117   119    1
   254   118   248    1
   255   118   249    1
   256   118   250    1
   257   119   251    1
   258   119   252    1
   259   119   253    1
