@<TRIPOS>MOLECULE
IMPHY005369
 63 67 0 0 0
SMALL
GASTEIGER

@<TRIPOS>ATOM
      1 O           2.8257    2.6694    0.0000 O.3     1  UNL1       -0.3671
      2 O           3.2383   -0.0942    0.0000 O.3     1  UNL1       -0.3848
      3 O           5.0913    2.6944    0.0000 O.3     1  UNL1       -0.3881
      4 O           5.5570   -1.4659    0.0000 O.3     1  UNL1       -0.4582
      5 O           4.0622   -1.2222    0.0000 O.3     1  UNL1       -0.3852
      6 O           7.9114   -1.2716    0.0000 O.3     1  UNL1       -0.3886
      7 O           3.8683   -1.8506    0.0000 O.2     1  UNL1       -0.2512
      8 C           4.3697    1.4949    0.0000 C.3     1  UNL1        0.0485
      9 C           3.9497    0.6086    0.0000 C.3     1  UNL1        0.1106
     10 C           6.1028    0.1193    0.0000 C.3     1  UNL1        0.0187
     11 C           3.6590    2.1624    0.0000 C.3     1  UNL1        0.0940
     12 C           6.0978    1.1193    0.0000 C.3     1  UNL1       -0.0027
     13 C           2.9831    0.7359    0.0000 C.3     1  UNL1        0.0255
     14 C           2.8038    1.6942    0.0000 C.3     1  UNL1        0.0935
     15 C           5.3239    1.7218    0.0000 C.3     1  UNL1        0.0747
     16 C           5.3349   -0.4909    0.0000 C.3     1  UNL1        0.1375
     17 C           4.3785   -0.2735    0.0000 C.3     1  UNL1        0.1221
     18 C           7.1136    0.7312    0.0000 C.3     1  UNL1       -0.0380
     19 C           8.2909    0.6302    0.0000 C.3     1  UNL1       -0.0117
     20 C           6.8877   -0.5003    0.0000 C.3     1  UNL1       -0.0145
     21 C           7.8615   -0.2729    0.0000 C.3     1  UNL1        0.0668
     22 C           6.8765    1.7467    0.0000 C.3     1  UNL1       -0.0466
     23 C           7.8526    1.5290    0.0000 C.3     1  UNL1       -0.0472
     24 C           2.0000    0.5528    0.0000 C.3     1  UNL1       -0.0546
     25 C           2.3751   -0.0581    0.0000 C.3     1  UNL1       -0.0546
     26 C           5.9392    2.5101    0.0000 C.3     1  UNL1       -0.0354
     27 C           8.8268   -0.5341    0.0000 C.3     1  UNL1       -0.0358
     28 C           4.8237   -2.1458    0.0000 C.2     1  UNL1        0.3043
     29 C           5.0459   -3.1208    0.0000 C.3     1  UNL1        0.0332
     30 H           4.9047    0.8345    0.0000 H       1  UNL1        0.0384
     31 H           4.0344    2.6558    0.0000 H       1  UNL1        0.0627
     32 H           6.0936    1.9693    0.0000 H       1  UNL1        0.0335
     33 H           2.1858    1.6439    0.0000 H       1  UNL1        0.0628
     34 H           5.9199   -0.6963    0.0000 H       1  UNL1        0.0767
     35 H           3.7598   -0.3140    0.0000 H       1  UNL1        0.0660
     36 H           7.3546    1.3025    0.0000 H       1  UNL1        0.0275
     37 H           6.6446    1.1367    0.0000 H       1  UNL1        0.0275
     38 H           9.1186    0.8235    0.0000 H       1  UNL1        0.0329
     39 H           6.4049   -0.8892    0.0000 H       1  UNL1        0.0299
     40 H           7.1595   -1.0575    0.0000 H       1  UNL1        0.0299
     41 H           7.1427    2.3066    0.0000 H       1  UNL1        0.0269
     42 H           6.3899    2.1308    0.0000 H       1  UNL1        0.0269
     43 H           8.4563    1.6700    0.0000 H       1  UNL1        0.0269
     44 H           7.8494    2.1490    0.0000 H       1  UNL1        0.0269
     45 H           1.8865    1.1623    0.0000 H       1  UNL1        0.0237
     46 H           1.3905    0.4393    0.0000 H       1  UNL1        0.0237
     47 H           2.1135   -0.0567    0.0000 H       1  UNL1        0.0237
     48 H           1.8828    0.3189    0.0000 H       1  UNL1        0.0237
     49 H           1.9981   -0.5503    0.0000 H       1  UNL1        0.0237
     50 H           2.8673   -0.4350    0.0000 H       1  UNL1        0.0237
     51 H           6.4280    2.1285    0.0000 H       1  UNL1        0.0257
     52 H           6.3208    2.9988    0.0000 H       1  UNL1        0.0257
     53 H           5.4505    2.8916    0.0000 H       1  UNL1        0.0257
     54 H           3.3952   -0.6940    0.0000 H       1  UNL1        0.2103
     55 H           5.5414    3.1208    0.0000 H       1  UNL1        0.2102
     56 H           8.6648   -1.1326    0.0000 H       1  UNL1        0.0257
     57 H           9.4253   -0.6961    0.0000 H       1  UNL1        0.0257
     58 H           8.9888    0.0644    0.0000 H       1  UNL1        0.0257
     59 H           3.4547   -1.3464    0.0000 H       1  UNL1        0.2101
     60 H           8.4631   -1.5545    0.0000 H       1  UNL1        0.2102
     61 H           4.4414   -3.2585    0.0000 H       1  UNL1        0.0342
     62 H           5.1836   -3.7253    0.0000 H       1  UNL1        0.0342
     63 H           5.6504   -2.9830    0.0000 H       1  UNL1        0.0342
@<TRIPOS>BOND
     1    11     1    1
     2    14     1    1
     3     9     2    1
     4     2    54    1
     5    15     3    1
     6     3    55    1
     7    16     4    1
     8     4    28    1
     9    17     5    1
    10     5    59    1
    11    21     6    1
    12     6    60    1
    13     7    28    2
    14     8     9    1
    15     8    11    1
    16     8    15    1
    17     8    30    1
    18     9    13    1
    19     9    17    1
    20    10    12    1
    21    10    16    1
    22    10    18    1
    23    10    20    1
    24    11    14    1
    25    11    31    1
    26    12    15    1
    27    12    22    1
    28    12    32    1
    29    13    14    1
    30    13    24    1
    31    13    25    1
    32    14    33    1
    33    15    26    1
    34    16    17    1
    35    16    34    1
    36    17    35    1
    37    18    19    1
    38    18    36    1
    39    18    37    1
    40    19    21    1
    41    19    23    1
    42    19    38    1
    43    20    21    1
    44    20    39    1
    45    20    40    1
    46    21    27    1
    47    22    23    1
    48    22    41    1
    49    22    42    1
    50    23    43    1
    51    23    44    1
    52    24    45    1
    53    24    46    1
    54    24    47    1
    55    25    48    1
    56    25    49    1
    57    25    50    1
    58    26    51    1
    59    26    52    1
    60    26    53    1
    61    27    56    1
    62    27    57    1
    63    27    58    1
    64    28    29    1
    65    29    61    1
    66    29    62    1
    67    29    63    1
