@<TRIPOS>MOLECULE
IMPHY014336
 83 88 0 0 0
SMALL
GASTEIGER

@<TRIPOS>ATOM
      1 O           5.5891    3.0906    0.0000 O.3     1  UNL1       -0.3695
      2 O           3.9890    4.8738    0.0000 O.3     1  UNL1       -0.3885
      3 O           2.6200    4.2895    0.0000 O.3     1  UNL1       -0.3943
      4 O           3.0822   -4.9758    0.0000 O.3     1  UNL1       -0.3912
      5 O           5.5626   -4.2519    0.0000 O.3     1  UNL1       -0.3944
      6 C           4.0021   -0.1180    0.0000 C.3     1  UNL1       -0.0193
      7 C           3.9860    0.9235    0.0000 C.3     1  UNL1       -0.0028
      8 C           3.1040   -0.6457    0.0000 C.3     1  UNL1       -0.0257
      9 C           3.9860    2.9235    0.0000 C.3     1  UNL1        0.0548
     10 C           3.0957   -1.7307    0.0000 C.3     1  UNL1       -0.0249
     11 C           3.1200    2.4235    0.0000 C.3     1  UNL1       -0.0062
     12 C           4.8520    2.4235    0.0000 C.3     1  UNL1        0.0707
     13 C           3.1200    1.4235    0.0000 C.2     1  UNL1       -0.0631
     14 C           4.0353   -2.2732    0.0000 C.3     1  UNL1       -0.0255
     15 C           4.8520    1.4235    0.0000 C.3     1  UNL1       -0.0163
     16 C           4.9540   -0.6386    0.0000 C.3     1  UNL1       -0.0463
     17 C           4.1952    3.8953    0.0000 C.3     1  UNL1        0.0924
     18 C           5.1840    3.9984    0.0000 C.3     1  UNL1        0.0907
     19 C           4.1238    2.4204    0.0000 C.3     1  UNL1       -0.0381
     20 C           4.9219    3.0293    0.0000 C.3     1  UNL1       -0.0056
     21 C           4.9707   -1.7235    0.0000 C.3     1  UNL1       -0.0485
     22 C           2.2020   -0.1249    0.0000 C.3     1  UNL1       -0.0306
     23 C           4.0527   -3.4032    0.0000 C.3     1  UNL1        0.0203
     24 C           2.1083   -2.2806    0.0000 C.3     1  UNL1       -0.0447
     25 C           2.2100    0.9167    0.0000 C.2     1  UNL1       -0.0836
     26 C           4.9855    0.0632    0.0000 C.3     1  UNL1       -0.0585
     27 C           4.9708    0.7499    0.0000 C.3     1  UNL1       -0.0552
     28 C           3.1200    3.4235    0.0000 C.3     1  UNL1        0.0552
     29 C           2.2297   -1.2307    0.0000 C.3     1  UNL1       -0.0590
     30 C           3.0784   -3.9758    0.0000 C.3     1  UNL1        0.0630
     31 C           2.0996   -3.4108    0.0000 C.3     1  UNL1       -0.0257
     32 C           5.7298    3.6186    0.0000 C.3     1  UNL1       -0.0573
     33 C           5.7520    2.4717    0.0000 C.3     1  UNL1       -0.0573
     34 C           4.5627   -4.2634    0.0000 C.3     1  UNL1        0.0522
     35 C           5.0527   -3.3917    0.0000 C.3     1  UNL1       -0.0548
     36 H           2.3663   -1.0679    0.0000 H       1  UNL1        0.0315
     37 H           2.3839    2.8485    0.0000 H       1  UNL1        0.0354
     38 H           5.3984    1.7724    0.0000 H       1  UNL1        0.0604
     39 H           4.7763   -2.6897    0.0000 H       1  UNL1        0.0313
     40 H           5.0641    0.8409    0.0000 H       1  UNL1        0.0299
     41 H           5.4626    1.5312    0.0000 H       1  UNL1        0.0299
     42 H           5.5664   -0.7353    0.0000 H       1  UNL1        0.0271
     43 H           5.1540   -0.0518    0.0000 H       1  UNL1        0.0271
     44 H           3.5752    3.8967    0.0000 H       1  UNL1        0.0627
     45 H           5.4058    4.8189    0.0000 H       1  UNL1        0.0627
     46 H           3.9356    1.8296    0.0000 H       1  UNL1        0.0277
     47 H           4.6307    2.0633    0.0000 H       1  UNL1        0.0277
     48 H           5.1888   -2.3039    0.0000 H       1  UNL1        0.0268
     49 H           5.5799   -1.6080    0.0000 H       1  UNL1        0.0268
     50 H           1.5920   -0.0141    0.0000 H       1  UNL1        0.0310
     51 H           1.9884   -0.7070    0.0000 H       1  UNL1        0.0310
     52 H           1.9038   -1.6954    0.0000 H       1  UNL1        0.0271
     53 H           1.4967   -2.3820    0.0000 H       1  UNL1        0.0271
     54 H           1.6767    1.2329    0.0000 H       1  UNL1        0.0572
     55 H           5.0979   -0.5465    0.0000 H       1  UNL1        0.0235
     56 H           5.5953    0.1756    0.0000 H       1  UNL1        0.0235
     57 H           4.8732    0.6730    0.0000 H       1  UNL1        0.0235
     58 H           4.8632    0.1393    0.0000 H       1  UNL1        0.0238
     59 H           5.5814    0.6422    0.0000 H       1  UNL1        0.0238
     60 H           5.0785    1.3604    0.0000 H       1  UNL1        0.0238
     61 H           2.5094    3.3159    0.0000 H       1  UNL1        0.0564
     62 H           3.5584    3.8619    0.0000 H       1  UNL1        0.0564
     63 H           2.5397   -0.6938    0.0000 H       1  UNL1        0.0235
     64 H           1.6927   -0.9207    0.0000 H       1  UNL1        0.0235
     65 H           1.9197   -1.7676    0.0000 H       1  UNL1        0.0235
     66 H           2.5420   -4.2869    0.0000 H       1  UNL1        0.0599
     67 H           1.4896   -3.3000    0.0000 H       1  UNL1        0.0290
     68 H           1.8861   -3.9928    0.0000 H       1  UNL1        0.0290
     69 H           6.0952    3.1177    0.0000 H       1  UNL1        0.0236
     70 H           6.2307    3.9840    0.0000 H       1  UNL1        0.0236
     71 H           5.3645    4.1195    0.0000 H       1  UNL1        0.0236
     72 H           5.4062    1.9570    0.0000 H       1  UNL1        0.0236
     73 H           6.2666    2.1260    0.0000 H       1  UNL1        0.0236
     74 H           6.0977    2.9863    0.0000 H       1  UNL1        0.0236
     75 H           3.9826   -4.4822    0.0000 H       1  UNL1        0.0563
     76 H           4.6774   -4.8727    0.0000 H       1  UNL1        0.0563
     77 H           5.0598   -4.0116    0.0000 H       1  UNL1        0.0237
     78 H           5.6726   -3.3845    0.0000 H       1  UNL1        0.0237
     79 H           5.0455   -2.7717    0.0000 H       1  UNL1        0.0237
     80 H           4.4505    5.2879    0.0000 H       1  UNL1        0.2099
     81 H           2.0000    4.2895    0.0000 H       1  UNL1        0.2094
     82 H           2.5465   -5.2879    0.0000 H       1  UNL1        0.2098
     83 H           5.8788   -4.7852    0.0000 H       1  UNL1        0.2094
@<TRIPOS>BOND
     1     1    12    1
     2     1    18    1
     3    17     2    1
     4     2    80    1
     5     3    28    1
     6     3    81    1
     7    30     4    1
     8     4    82    1
     9     5    34    1
    10     5    83    1
    11     6     7    1
    12     6     8    1
    13     6    16    1
    14     6    26    1
    15     7    13    1
    16     7    15    1
    17     7    27    1
    18     8    10    1
    19     8    22    1
    20     8    36    1
    21     9    11    1
    22     9    12    1
    23     9    17    1
    24     9    28    1
    25    10    14    1
    26    10    24    1
    27    10    29    1
    28    11    13    1
    29    11    19    1
    30    11    37    1
    31    12    15    1
    32    12    38    1
    33    13    25    2
    34    14    21    1
    35    14    23    1
    36    14    39    1
    37    15    40    1
    38    15    41    1
    39    16    21    1
    40    16    42    1
    41    16    43    1
    42    17    18    1
    43    17    44    1
    44    18    20    1
    45    18    45    1
    46    19    20    1
    47    19    46    1
    48    19    47    1
    49    20    32    1
    50    20    33    1
    51    21    48    1
    52    21    49    1
    53    22    25    1
    54    22    50    1
    55    22    51    1
    56    23    30    1
    57    23    34    1
    58    23    35    1
    59    24    31    1
    60    24    52    1
    61    24    53    1
    62    25    54    1
    63    26    55    1
    64    26    56    1
    65    26    57    1
    66    27    58    1
    67    27    59    1
    68    27    60    1
    69    28    61    1
    70    28    62    1
    71    29    63    1
    72    29    64    1
    73    29    65    1
    74    30    31    1
    75    30    66    1
    76    31    67    1
    77    31    68    1
    78    32    69    1
    79    32    70    1
    80    32    71    1
    81    33    72    1
    82    33    73    1
    83    33    74    1
    84    34    75    1
    85    34    76    1
    86    35    77    1
    87    35    78    1
    88    35    79    1
