@<TRIPOS>MOLECULE
IMPHY001712
 33 35 0 0 0
SMALL
GASTEIGER

@<TRIPOS>ATOM
      1 O           6.0812    0.5054    0.0000 O.3     1  UNL1       -0.4523
      2 O           7.4739    1.8979    0.0000 O.3     1  UNL1       -0.3492
      3 O           6.3919    3.0654    0.0000 O.2     1  UNL1       -0.2848
      4 O           4.2690    3.3102    0.0000 O.3     1  UNL1       -0.5058
      5 O           2.5369    0.3102    0.0000 O.3     1  UNL1       -0.5065
      6 O           7.0557   -3.2557    0.0000 O.3     1  UNL1       -0.5068
      7 C           6.6648    1.3102    0.0000 C.3     1  UNL1        0.2783
      8 C           7.4739    0.7224    0.0000 C.3     1  UNL1        0.0459
      9 C           6.0812    2.1149    0.0000 C.2     1  UNL1        0.2413
     10 C           5.1350    1.8102    0.0000 C.ar    1  UNL1        0.1073
     11 C           5.1350    0.8102    0.0000 C.ar    1  UNL1        0.1424
     12 C           7.3693   -0.2722    0.0000 C.ar    1  UNL1       -0.0405
     13 C           4.2690    2.3102    0.0000 C.ar    1  UNL1        0.1345
     14 C           4.2690    0.3102    0.0000 C.ar    1  UNL1        0.0226
     15 C           6.4558   -0.6789    0.0000 C.ar    1  UNL1       -0.0549
     16 C           8.1784   -0.8599    0.0000 C.ar    1  UNL1       -0.0549
     17 C           3.4030    1.8102    0.0000 C.ar    1  UNL1        0.0222
     18 C           3.4030    0.8102    0.0000 C.ar    1  UNL1        0.1238
     19 C           6.3513   -1.6734    0.0000 C.ar    1  UNL1       -0.0199
     20 C           8.0738   -1.8545    0.0000 C.ar    1  UNL1       -0.0199
     21 C           7.1603   -2.2612    0.0000 C.ar    1  UNL1        0.1169
     22 H           8.0698    0.5515    0.0000 H       1  UNL1        0.0382
     23 H           7.7456    1.2796    0.0000 H       1  UNL1        0.0382
     24 H           4.2690   -0.3098    0.0000 H       1  UNL1        0.0691
     25 H           8.0403    1.6458    0.0000 H       1  UNL1        0.2143
     26 H           5.9542   -0.3145    0.0000 H       1  UNL1        0.0621
     27 H           8.7448   -0.6078    0.0000 H       1  UNL1        0.0621
     28 H           2.8660    2.1202    0.0000 H       1  UNL1        0.0691
     29 H           5.7849   -1.9256    0.0000 H       1  UNL1        0.0654
     30 H           8.5754   -2.2189    0.0000 H       1  UNL1        0.0654
     31 H           3.7320    3.6202    0.0000 H       1  UNL1        0.2922
     32 H           2.0000    0.6202    0.0000 H       1  UNL1        0.2921
     33 H           7.5573   -3.6202    0.0000 H       1  UNL1        0.2921
@<TRIPOS>BOND
     1     1     7    1
     2     1    11    1
     3     2     7    1
     4     2    25    1
     5     3     9    2
     6     4    13    1
     7     4    31    1
     8     5    18    1
     9     5    32    1
    10     6    21    1
    11     6    33    1
    12     7     8    1
    13     7     9    1
    14     8    12    1
    15     8    22    1
    16     8    23    1
    17     9    10    1
    18    10    11   ar
    19    10    13   ar
    20    11    14   ar
    21    12    15   ar
    22    12    16   ar
    23    13    17   ar
    24    14    18   ar
    25    14    24    1
    26    15    19   ar
    27    15    26    1
    28    16    20   ar
    29    16    27    1
    30    17    18   ar
    31    17    28    1
    32    19    21   ar
    33    19    29    1
    34    20    21   ar
    35    20    30    1
