@<TRIPOS>MOLECULE
IMPHY008861
 39 41 0 0 0
SMALL
GASTEIGER

@<TRIPOS>ATOM
      1 O           3.1452    2.1282    0.0000 O.3     1  UNL1       -0.3910
      2 C           4.0791   -0.9634    0.0000 C.3     1  UNL1       -0.0229
      3 C           3.1781   -0.5295    0.0000 C.3     1  UNL1       -0.0276
      4 C           2.9556    0.4454    0.0000 C.3     1  UNL1       -0.0053
      5 C           4.5791    1.2272    0.0000 C.3     1  UNL1       -0.0139
      6 C           3.9722    0.2134    0.0000 C.3     1  UNL1       -0.0417
      7 C           3.9431   -1.9482    0.0000 C.3     1  UNL1       -0.0379
      8 C           4.9800   -0.5295    0.0000 C.3     1  UNL1       -0.0465
      9 C           3.5791    1.2272    0.0000 C.3     1  UNL1        0.0634
     10 C           2.4930   -1.2498    0.0000 C.3     1  UNL1       -0.0489
     11 C           5.2025    0.4454    0.0000 C.3     1  UNL1       -0.0473
     12 C           2.9648   -2.1248    0.0000 C.3     1  UNL1       -0.0497
     13 C           2.2225    1.1256    0.0000 C.3     1  UNL1       -0.0572
     14 C           2.0000    0.1506    0.0000 C.3     1  UNL1       -0.0572
     15 C           4.6647   -2.6405    0.0000 C.3     1  UNL1       -0.0619
     16 H           2.4123   -0.1607    0.0000 H       1  UNL1        0.0312
     17 H           4.7682    2.0559    0.0000 H       1  UNL1        0.0326
     18 H           3.5644    0.6804    0.0000 H       1  UNL1        0.0274
     19 H           3.4022   -0.0305    0.0000 H       1  UNL1        0.0274
     20 H           3.7640   -2.5417    0.0000 H       1  UNL1        0.0304
     21 H           5.1180   -1.1340    0.0000 H       1  UNL1        0.0271
     22 H           5.6000   -0.5295    0.0000 H       1  UNL1        0.0271
     23 H           3.9089    1.7522    0.0000 H       1  UNL1        0.0601
     24 H           2.0911   -0.7777    0.0000 H       1  UNL1        0.0268
     25 H           1.9812   -1.5998    0.0000 H       1  UNL1        0.0268
     26 H           5.7612    0.1764    0.0000 H       1  UNL1        0.0269
     27 H           5.5891    0.9301    0.0000 H       1  UNL1        0.0269
     28 H           2.3912   -2.3601    0.0000 H       1  UNL1        0.0268
     29 H           3.1385   -2.7200    0.0000 H       1  UNL1        0.0268
     30 H           2.6442    1.5801    0.0000 H       1  UNL1        0.0236
     31 H           1.7680    1.5473    0.0000 H       1  UNL1        0.0236
     32 H           1.8008    0.6711    0.0000 H       1  UNL1        0.0236
     33 H           1.8172    0.7431    0.0000 H       1  UNL1        0.0236
     34 H           1.4075   -0.0321    0.0000 H       1  UNL1        0.0236
     35 H           2.1828   -0.4418    0.0000 H       1  UNL1        0.0236
     36 H           4.2354   -3.0878    0.0000 H       1  UNL1        0.0233
     37 H           5.1121   -3.0697    0.0000 H       1  UNL1        0.0233
     38 H           5.0939   -2.1931    0.0000 H       1  UNL1        0.0233
     39 H           3.4944    2.6405    0.0000 H       1  UNL1        0.2098
@<TRIPOS>BOND
     1     9     1    1
     2     1    39    1
     3     2     3    1
     4     2     6    1
     5     2     7    1
     6     2     8    1
     7     3     4    1
     8     3    10    1
     9     3    16    1
    10     4     9    1
    11     4    13    1
    12     4    14    1
    13     5     6    1
    14     5     9    1
    15     5    11    1
    16     5    17    1
    17     6    18    1
    18     6    19    1
    19     7    12    1
    20     7    15    1
    21     7    20    1
    22     8    11    1
    23     8    21    1
    24     8    22    1
    25     9    23    1
    26    10    12    1
    27    10    24    1
    28    10    25    1
    29    11    26    1
    30    11    27    1
    31    12    28    1
    32    12    29    1
    33    13    30    1
    34    13    31    1
    35    13    32    1
    36    14    33    1
    37    14    34    1
    38    14    35    1
    39    15    36    1
    40    15    37    1
    41    15    38    1
