@<TRIPOS>MOLECULE
IMPHY012552
 49 51 0 0 0
SMALL
GASTEIGER

@<TRIPOS>ATOM
      1 O           3.7127    0.1857    0.0000 O.3     1  UNL1       -0.4561
      2 O           6.2527   -0.3031    0.0000 O.3     1  UNL1       -0.4582
      3 O           5.6649   -2.7355    0.0000 O.3     1  UNL1       -0.3774
      4 O           2.0000    0.1969    0.0000 O.2     1  UNL1       -0.2453
      5 O           7.1188   -1.7808    0.0000 O.2     1  UNL1       -0.2476
      6 N           4.5594    2.6299    0.0000 N.3     1  UNL1       -0.2886
      7 C           4.5594    1.6522    0.0000 C.3     1  UNL1        0.0723
      8 C           3.7127    1.1634    0.0000 C.3     1  UNL1        0.1239
      9 C           3.0181    2.0922    0.0000 C.3     1  UNL1       -0.0010
     10 C           3.5395    2.8743    0.0000 C.3     1  UNL1        0.0033
     11 C           5.4061    1.1634    0.0000 C.2     1  UNL1       -0.0148
     12 C           5.4949    2.8960    0.0000 C.3     1  UNL1        0.0182
     13 C           6.1032    2.0922    0.0000 C.2     1  UNL1       -0.0660
     14 C           5.4061    0.1857    0.0000 C.3     1  UNL1        0.1153
     15 C           4.5594   -1.2808    0.0000 C.3     1  UNL1        0.0020
     16 C           3.7127   -1.7696    0.0000 C.3     1  UNL1       -0.0068
     17 C           5.4061   -1.7696    0.0000 C.3     1  UNL1        0.1623
     18 C           2.8660   -1.2808    0.0000 C.2     1  UNL1        0.0327
     19 C           2.8660   -0.3031    0.0000 C.2     1  UNL1        0.3352
     20 C           6.2527   -1.2808    0.0000 C.2     1  UNL1        0.3395
     21 C           4.5594   -0.2808    0.0000 C.3     1  UNL1       -0.0587
     22 C           3.7127   -2.7696    0.0000 C.3     1  UNL1       -0.0578
     23 C           4.8326   -2.5888    0.0000 C.3     1  UNL1       -0.0253
     24 C           2.0000   -1.7808    0.0000 C.2     1  UNL1       -0.0885
     25 H           4.5594    0.8022    0.0000 H       1  UNL1        0.0547
     26 H           2.9061    0.8952    0.0000 H       1  UNL1        0.0753
     27 H           2.5446    2.4923    0.0000 H       1  UNL1        0.0314
     28 H           2.5669    1.6670    0.0000 H       1  UNL1        0.0314
     29 H           3.7538    3.4561    0.0000 H       1  UNL1        0.0428
     30 H           2.9869    3.1553    0.0000 H       1  UNL1        0.0428
     31 H           6.0316    3.2064    0.0000 H       1  UNL1        0.0470
     32 H           5.2530    3.4669    0.0000 H       1  UNL1        0.0470
     33 H           6.7232    2.0934    0.0000 H       1  UNL1        0.0586
     34 H           4.7955    0.2934    0.0000 H       1  UNL1        0.0746
     35 H           5.1940   -0.3969    0.0000 H       1  UNL1        0.0746
     36 H           5.0964   -0.9708    0.0000 H       1  UNL1        0.0337
     37 H           3.1757   -2.0796    0.0000 H       1  UNL1        0.0352
     38 H           5.1794   -0.2808    0.0000 H       1  UNL1        0.0234
     39 H           4.5594    0.3392    0.0000 H       1  UNL1        0.0234
     40 H           3.9394   -0.2808    0.0000 H       1  UNL1        0.0234
     41 H           3.0927   -2.7696    0.0000 H       1  UNL1        0.0236
     42 H           3.7127   -3.3896    0.0000 H       1  UNL1        0.0236
     43 H           4.3327   -2.7696    0.0000 H       1  UNL1        0.0236
     44 H           4.3247   -2.2332    0.0000 H       1  UNL1        0.0263
     45 H           4.4770   -3.0967    0.0000 H       1  UNL1        0.0263
     46 H           5.3405   -2.9444    0.0000 H       1  UNL1        0.0263
     47 H           6.2638   -2.8960    0.0000 H       1  UNL1        0.2109
     48 H           1.4631   -1.4708    0.0000 H       1  UNL1        0.0540
     49 H           2.0000   -2.4008    0.0000 H       1  UNL1        0.0540
@<TRIPOS>BOND
     1     1     8    1
     2     1    19    1
     3     2    14    1
     4     2    20    1
     5    17     3    1
     6     3    47    1
     7     4    19    2
     8     5    20    2
     9     6     7    1
    10     6    10    1
    11     6    12    1
    12     7     8    1
    13     7    11    1
    14     7    25    1
    15     8     9    1
    16     8    26    1
    17     9    10    1
    18     9    27    1
    19     9    28    1
    20    10    29    1
    21    10    30    1
    22    11    13    2
    23    11    14    1
    24    12    13    1
    25    12    31    1
    26    12    32    1
    27    13    33    1
    28    14    34    1
    29    14    35    1
    30    15    16    1
    31    15    17    1
    32    15    21    1
    33    15    36    1
    34    16    18    1
    35    16    22    1
    36    16    37    1
    37    17    20    1
    38    17    23    1
    39    18    19    1
    40    18    24    2
    41    21    38    1
    42    21    39    1
    43    21    40    1
    44    22    41    1
    45    22    42    1
    46    22    43    1
    47    23    44    1
    48    23    45    1
    49    23    46    1
    50    24    48    1
    51    24    49    1
