@<TRIPOS>MOLECULE
IMPHY014624
 130 135 0 0 0
SMALL
GASTEIGER

@<TRIPOS>ATOM
      1 O           8.7829   -1.1429    0.0000 O.3     1  UNL1       -0.3451
      2 O           7.8834    4.4230    0.0000 O.3     1  UNL1       -0.3915
      3 O          12.4279   -0.1119    0.0000 O.3     1  UNL1       -0.3912
      4 O           4.8121    3.8557    0.0000 O.3     1  UNL1       -0.3886
      5 O           7.0509   -1.1429    0.0000 O.3     1  UNL1       -0.3405
      6 O           8.7829   -3.1429    0.0000 O.3     1  UNL1       -0.3378
      7 O           7.0509   -4.1429    0.0000 O.3     1  UNL1       -0.3864
      8 O           5.3188   -3.1429    0.0000 O.3     1  UNL1       -0.3865
      9 O           2.1949    6.6760    0.0000 O.3     1  UNL1       -0.3891
     10 O           7.9169   -4.6429    0.0000 O.3     1  UNL1       -0.3431
     11 O           4.4528   -1.6429    0.0000 O.3     1  UNL1       -0.3924
     12 O          10.5150   -4.1429    0.0000 O.3     1  UNL1       -0.3841
     13 O          10.5150   -6.1429    0.0000 O.3     1  UNL1       -0.3864
     14 O           8.7829   -7.1429    0.0000 O.3     1  UNL1       -0.3866
     15 C           7.8949    1.4230    0.0000 C.3     1  UNL1       -0.0206
     16 C           7.0270    1.9196    0.0000 C.3     1  UNL1       -0.0208
     17 C           8.7590    1.9263    0.0000 C.3     1  UNL1       -0.0269
     18 C           9.6710    1.4230    0.0000 C.3     1  UNL1       -0.0228
     19 C           7.0231    2.9196    0.0000 C.3     1  UNL1       -0.0036
     20 C           9.6830    0.3814    0.0000 C.3     1  UNL1       -0.0014
     21 C           7.8829    0.3814    0.0000 C.3     1  UNL1       -0.0200
     22 C           8.7552    2.9263    0.0000 C.3     1  UNL1       -0.0227
     23 C           6.0757    3.2207    0.0000 C.3     1  UNL1       -0.0067
     24 C           7.8872    3.4230    0.0000 C.3     1  UNL1        0.0592
     25 C           6.0819    1.6113    0.0000 C.3     1  UNL1       -0.0464
     26 C           8.7829   -0.1429    0.0000 C.3     1  UNL1        0.0662
     27 C          10.6205   -0.1647    0.0000 C.3     1  UNL1       -0.0032
     28 C           5.4952    2.4138    0.0000 C.3     1  UNL1       -0.0467
     29 C          10.5956    1.9906    0.0000 C.3     1  UNL1       -0.0446
     30 C           7.2551    0.6545    0.0000 C.3     1  UNL1       -0.0587
     31 C           6.6886    0.9786    0.0000 C.3     1  UNL1       -0.0587
     32 C           9.6594    2.4229    0.0000 C.3     1  UNL1       -0.0589
     33 C          11.5581    0.3814    0.0000 C.3     1  UNL1        0.0607
     34 C          11.5455    1.4664    0.0000 C.3     1  UNL1       -0.0258
     35 C           5.7614    4.1700    0.0000 C.3     1  UNL1        0.0665
     36 C          11.1205   -1.0307    0.0000 C.3     1  UNL1       -0.0571
     37 C          10.1205   -1.0307    0.0000 C.3     1  UNL1       -0.0571
     38 C           5.4471    5.1194    0.0000 C.3     1  UNL1       -0.0239
     39 C           6.7107    4.4844    0.0000 C.3     1  UNL1       -0.0358
     40 C           7.9169   -1.6429    0.0000 C.3     1  UNL1        0.1886
     41 C           4.4678    5.3218    0.0000 C.3     1  UNL1       -0.0479
     42 C           7.9169   -2.6429    0.0000 C.3     1  UNL1        0.1406
     43 C           4.1535    6.2711    0.0000 C.3     1  UNL1       -0.0244
     44 C           7.0509   -3.1429    0.0000 C.3     1  UNL1        0.1144
     45 C           6.1849   -1.6429    0.0000 C.3     1  UNL1        0.1130
     46 C           6.1849   -2.6429    0.0000 C.3     1  UNL1        0.1119
     47 C           3.1742    6.4736    0.0000 C.3     1  UNL1        0.0605
     48 C           5.3188   -1.1429    0.0000 C.3     1  UNL1        0.0730
     49 C           8.7829   -4.1429    0.0000 C.3     1  UNL1        0.1884
     50 C           3.3766    7.4529    0.0000 C.3     1  UNL1       -0.0363
     51 C           2.9717    5.4943    0.0000 C.3     1  UNL1       -0.0363
     52 C           9.6490   -4.6429    0.0000 C.3     1  UNL1        0.1341
     53 C           9.6490   -5.6429    0.0000 C.3     1  UNL1        0.1140
     54 C           7.9169   -5.6429    0.0000 C.3     1  UNL1        0.0873
     55 C           8.7829   -6.1429    0.0000 C.3     1  UNL1        0.1095
     56 C           7.0509   -6.1429    0.0000 C.3     1  UNL1       -0.0361
     57 H           9.4902    2.3598    0.0000 H       1  UNL1        0.0312
     58 H           6.9299    3.7645    0.0000 H       1  UNL1        0.0335
     59 H           9.6830   -0.4686    0.0000 H       1  UNL1        0.0337
     60 H           7.2733    0.4946    0.0000 H       1  UNL1        0.0296
     61 H           7.6671   -0.1998    0.0000 H       1  UNL1        0.0296
     62 H           9.3662    2.8210    0.0000 H       1  UNL1        0.0293
     63 H           8.9650    3.5097    0.0000 H       1  UNL1        0.0293
     64 H           5.2355    3.3494    0.0000 H       1  UNL1        0.0332
     65 H           7.3491    3.7309    0.0000 H       1  UNL1        0.0596
     66 H           5.5458    1.3000    0.0000 H       1  UNL1        0.0271
     67 H           6.3351    1.0453    0.0000 H       1  UNL1        0.0271
     68 H           9.3205   -0.4518    0.0000 H       1  UNL1        0.0600
     69 H           5.0328    2.8267    0.0000 H       1  UNL1        0.0269
     70 H           5.0360    1.9972    0.0000 H       1  UNL1        0.0269
     71 H          10.9837    2.4742    0.0000 H       1  UNL1        0.0271
     72 H          10.1856    2.4557    0.0000 H       1  UNL1        0.0271
     73 H           6.7786    1.0512    0.0000 H       1  UNL1        0.0235
     74 H           6.8584    0.1780    0.0000 H       1  UNL1        0.0235
     75 H           7.7315    0.2578    0.0000 H       1  UNL1        0.0235
     76 H           6.1052    1.1884    0.0000 H       1  UNL1        0.0235
     77 H           6.4788    0.3952    0.0000 H       1  UNL1        0.0235
     78 H           7.2720    0.7688    0.0000 H       1  UNL1        0.0235
     79 H          10.2794    2.4301    0.0000 H       1  UNL1        0.0235
     80 H           9.6522    3.0429    0.0000 H       1  UNL1        0.0235
     81 H           9.0394    2.4158    0.0000 H       1  UNL1        0.0235
     82 H          11.5617   -0.2386    0.0000 H       1  UNL1        0.0599
     83 H          12.1576    1.3673    0.0000 H       1  UNL1        0.0290
     84 H          11.7478    2.0524    0.0000 H       1  UNL1        0.0290
     85 H          10.5836   -1.3407    0.0000 H       1  UNL1        0.0236
     86 H          11.4305   -1.5676    0.0000 H       1  UNL1        0.0236
     87 H          11.6575   -0.7207    0.0000 H       1  UNL1        0.0236
     88 H           9.5836   -0.7207    0.0000 H       1  UNL1        0.0236
     89 H           9.8105   -1.5676    0.0000 H       1  UNL1        0.0236
     90 H          10.6575   -1.3407    0.0000 H       1  UNL1        0.0236
     91 H           8.4191    4.7350    0.0000 H       1  UNL1        0.2098
     92 H           6.0606    5.2091    0.0000 H       1  UNL1        0.0293
     93 H           5.4653    5.7391    0.0000 H       1  UNL1        0.0293
     94 H           6.9056    3.8958    0.0000 H       1  UNL1        0.0257
     95 H           7.2993    4.6792    0.0000 H       1  UNL1        0.0257
     96 H           6.5158    5.0729    0.0000 H       1  UNL1        0.0257
     97 H           7.9169   -1.0229    0.0000 H       1  UNL1        0.0938
     98 H          12.9625    0.2023    0.0000 H       1  UNL1        0.2098
     99 H           4.3490    4.2680    0.0000 H       1  UNL1        0.2102
    100 H           3.8543    5.2321    0.0000 H       1  UNL1        0.0267
    101 H           4.4496    4.7021    0.0000 H       1  UNL1        0.0267
    102 H           7.9169   -3.2629    0.0000 H       1  UNL1        0.0675
    103 H           4.7669    6.3608    0.0000 H       1  UNL1        0.0293
    104 H           4.1716    6.8908    0.0000 H       1  UNL1        0.0293
    105 H           6.5140   -3.4529    0.0000 H       1  UNL1        0.0648
    106 H           6.1849   -1.0229    0.0000 H       1  UNL1        0.0647
    107 H           6.1849   -3.2629    0.0000 H       1  UNL1        0.0647
    108 H           5.7174   -0.6679    0.0000 H       1  UNL1        0.0584
    109 H           4.9203   -0.6679    0.0000 H       1  UNL1        0.0584
    110 H           9.3199   -3.8329    0.0000 H       1  UNL1        0.0938
    111 H           6.5140   -4.4529    0.0000 H       1  UNL1        0.2100
    112 H           3.9838    7.3273    0.0000 H       1  UNL1        0.0257
    113 H           3.5021    8.0600    0.0000 H       1  UNL1        0.0257
    114 H           2.7695    7.5784    0.0000 H       1  UNL1        0.0257
    115 H           2.3646    5.6198    0.0000 H       1  UNL1        0.0257
    116 H           2.8462    4.8871    0.0000 H       1  UNL1        0.0257
    117 H           3.5789    5.3688    0.0000 H       1  UNL1        0.0257
    118 H           5.3188   -3.7629    0.0000 H       1  UNL1        0.2100
    119 H           2.0000    7.2646    0.0000 H       1  UNL1        0.2101
    120 H          10.1859   -4.9529    0.0000 H       1  UNL1        0.0671
    121 H           3.9159   -1.3329    0.0000 H       1  UNL1        0.2095
    122 H          10.1859   -5.3329    0.0000 H       1  UNL1        0.0648
    123 H           7.3800   -5.3329    0.0000 H       1  UNL1        0.0621
    124 H           9.3199   -6.4529    0.0000 H       1  UNL1        0.0646
    125 H          11.0519   -4.4529    0.0000 H       1  UNL1        0.2101
    126 H           6.7409   -5.6059    0.0000 H       1  UNL1        0.0255
    127 H           6.5140   -6.4529    0.0000 H       1  UNL1        0.0255
    128 H           7.3609   -6.6798    0.0000 H       1  UNL1        0.0255
    129 H          10.5150   -6.7629    0.0000 H       1  UNL1        0.2100
    130 H           8.2460   -7.4529    0.0000 H       1  UNL1        0.2100
@<TRIPOS>BOND
     1    26     1    1
     2    40     1    1
     3    24     2    1
     4     2    91    1
     5    33     3    1
     6     3    98    1
     7    35     4    1
     8     4    99    1
     9     5    40    1
    10     5    45    1
    11    42     6    1
    12    49     6    1
    13    44     7    1
    14     7   111    1
    15    46     8    1
    16     8   118    1
    17     9    47    1
    18     9   119    1
    19    10    49    1
    20    10    54    1
    21    11    48    1
    22    11   121    1
    23    52    12    1
    24    12   125    1
    25    53    13    1
    26    13   129    1
    27    55    14    1
    28    14   130    1
    29    15    16    1
    30    15    17    1
    31    15    21    1
    32    15    30    1
    33    16    19    1
    34    16    25    1
    35    16    31    1
    36    17    18    1
    37    17    22    1
    38    17    57    1
    39    18    20    1
    40    18    29    1
    41    18    32    1
    42    19    23    1
    43    19    24    1
    44    19    58    1
    45    20    26    1
    46    20    27    1
    47    20    59    1
    48    21    26    1
    49    21    60    1
    50    21    61    1
    51    22    24    1
    52    22    62    1
    53    22    63    1
    54    23    28    1
    55    23    35    1
    56    23    64    1
    57    24    65    1
    58    25    28    1
    59    25    66    1
    60    25    67    1
    61    26    68    1
    62    27    33    1
    63    27    36    1
    64    27    37    1
    65    28    69    1
    66    28    70    1
    67    29    34    1
    68    29    71    1
    69    29    72    1
    70    30    73    1
    71    30    74    1
    72    30    75    1
    73    31    76    1
    74    31    77    1
    75    31    78    1
    76    32    79    1
    77    32    80    1
    78    32    81    1
    79    33    34    1
    80    33    82    1
    81    34    83    1
    82    34    84    1
    83    35    38    1
    84    35    39    1
    85    36    85    1
    86    36    86    1
    87    36    87    1
    88    37    88    1
    89    37    89    1
    90    37    90    1
    91    38    41    1
    92    38    92    1
    93    38    93    1
    94    39    94    1
    95    39    95    1
    96    39    96    1
    97    40    42    1
    98    40    97    1
    99    41    43    1
   100    41   100    1
   101    41   101    1
   102    42    44    1
   103    42   102    1
   104    43    47    1
   105    43   103    1
   106    43   104    1
   107    44    46    1
   108    44   105    1
   109    45    46    1
   110    45    48    1
   111    45   106    1
   112    46   107    1
   113    47    50    1
   114    47    51    1
   115    48   108    1
   116    48   109    1
   117    49    52    1
   118    49   110    1
   119    50   112    1
   120    50   113    1
   121    50   114    1
   122    51   115    1
   123    51   116    1
   124    51   117    1
   125    52    53    1
   126    52   120    1
   127    53    55    1
   128    53   122    1
   129    54    55    1
   130    54    56    1
   131    54   123    1
   132    55   124    1
   133    56   126    1
   134    56   127    1
   135    56   128    1
