@<TRIPOS>MOLECULE
IMPHY016300
 15 15 0 0 0
SMALL
GASTEIGER

@<TRIPOS>ATOM
      1 O           3.7601   -1.1739    0.0000 O.3     1  UNL1       -0.3865
      2 O           5.5202   -0.8952    0.0000 O.2     1  UNL1       -0.2448
      3 O           2.0000   -0.8952    0.0000 O.2     1  UNL1       -0.2448
      4 C           4.2601    0.3649    0.0000 C.2     1  UNL1        0.0436
      5 C           3.2601    0.3649    0.0000 C.2     1  UNL1        0.0436
      6 C           4.5691   -0.5861    0.0000 C.2     1  UNL1        0.3429
      7 C           2.9511   -0.5861    0.0000 C.2     1  UNL1        0.3429
      8 C           4.8479    1.1739    0.0000 C.3     1  UNL1       -0.0324
      9 C           2.6723    1.1739    0.0000 C.3     1  UNL1       -0.0324
     10 H           5.3494    0.8095    0.0000 H       1  UNL1        0.0280
     11 H           5.2123    1.6755    0.0000 H       1  UNL1        0.0280
     12 H           4.3463    1.5384    0.0000 H       1  UNL1        0.0280
     13 H           3.1739    1.5384    0.0000 H       1  UNL1        0.0280
     14 H           2.3079    1.6755    0.0000 H       1  UNL1        0.0280
     15 H           2.1707    0.8095    0.0000 H       1  UNL1        0.0280
@<TRIPOS>BOND
     1     1     6    1
     2     1     7    1
     3     2     6    2
     4     3     7    2
     5     4     5    2
     6     4     6    1
     7     4     8    1
     8     5     7    1
     9     5     9    1
    10     8    10    1
    11     8    11    1
    12     8    12    1
    13     9    13    1
    14     9    14    1
    15     9    15    1
