@<TRIPOS>MOLECULE
IMPHY002889
 22 22 0 0 0
SMALL
GASTEIGER

@<TRIPOS>ATOM
      1 N           3.7320   -1.0000    0.0000 N.ar    1  UNL1       -0.2535
      2 N           3.7320    1.0000    0.0000 N.ar    1  UNL1       -0.2566
      3 C           4.5981   -0.5000    0.0000 C.ar    1  UNL1        0.0594
      4 C           5.4641   -1.0000    0.0000 C.3     1  UNL1       -0.0118
      5 C           2.8660   -0.5000    0.0000 C.ar    1  UNL1        0.0595
      6 C           2.8660    0.5000    0.0000 C.ar    1  UNL1        0.0592
      7 C           4.5981    0.5000    0.0000 C.ar    1  UNL1        0.0491
      8 C           6.3301   -0.5000    0.0000 C.3     1  UNL1       -0.0598
      9 C           2.0000   -1.0000    0.0000 C.3     1  UNL1       -0.0206
     10 C           2.0000    1.0000    0.0000 C.3     1  UNL1       -0.0206
     11 H           5.0656   -1.4750    0.0000 H       1  UNL1        0.0326
     12 H           5.8626   -1.4750    0.0000 H       1  UNL1        0.0326
     13 H           5.1350    0.8100    0.0000 H       1  UNL1        0.0848
     14 H           6.6401   -1.0369    0.0000 H       1  UNL1        0.0233
     15 H           6.8671   -0.1900    0.0000 H       1  UNL1        0.0233
     16 H           6.0201    0.0369    0.0000 H       1  UNL1        0.0233
     17 H           1.6900   -0.4631    0.0000 H       1  UNL1        0.0293
     18 H           1.4631   -1.3100    0.0000 H       1  UNL1        0.0293
     19 H           2.3100   -1.5369    0.0000 H       1  UNL1        0.0293
     20 H           2.3100    1.5369    0.0000 H       1  UNL1        0.0293
     21 H           1.4631    1.3100    0.0000 H       1  UNL1        0.0293
     22 H           1.6900    0.4631    0.0000 H       1  UNL1        0.0293
@<TRIPOS>BOND
     1     1     3   ar
     2     1     5   ar
     3     2     6   ar
     4     2     7   ar
     5     3     4    1
     6     3     7   ar
     7     4     8    1
     8     4    11    1
     9     4    12    1
    10     5     6   ar
    11     5     9    1
    12     6    10    1
    13     7    13    1
    14     8    14    1
    15     8    15    1
    16     8    16    1
    17     9    17    1
    18     9    18    1
    19     9    19    1
    20    10    20    1
    21    10    21    1
    22    10    22    1
