@<TRIPOS>MOLECULE
IMPHY000476
 17 17 0 0 0
SMALL
GASTEIGER

@<TRIPOS>ATOM
      1 C          -3.4641    3.0000    0.0000 C.3     1  UNL1        0.0233
      2 C          -0.8660    1.5000    0.0000 C.3     1  UNL1        0.0233
      3 C           2.5981    0.5000    0.0000 C.3     1  UNL1        0.0512
      4 C          -3.4641    2.0000    0.0000 C.3     1  UNL1        0.0938
      5 C          -1.7321    2.0000    0.0000 C.3     1  UNL1        0.0938
      6 C           1.7321    0.0000    0.0000 C.3     1  UNL1        0.2057
      7 C          -1.7321   -1.0000    0.0000 C.ar    1  UNL1        0.0080
      8 C          -0.8660   -1.5000    0.0000 C.ar    1  UNL1        0.0454
      9 C          -0.8660    0.5000    0.0000 C.ar    1  UNL1        0.0447
     10 C          -1.7321    0.0000    0.0000 C.ar    1  UNL1        0.0568
     11 C           0.0000   -1.0000    0.0000 C.ar    1  UNL1        0.2293
     12 C           0.0000    0.0000    0.0000 C.ar    1  UNL1        0.1773
     13 C          -2.5981    0.5000    0.0000 C.2     1  UNL1        0.2491
     14 N          -2.5981    1.5000    0.0000 N.am    1  UNL1       -0.2761
     15 O           0.8660   -1.5000    0.0000 O.3     1  UNL1       -0.2833
     16 O          -3.4641    0.0000    0.0000 O.2     1  UNL1       -0.2699
     17 O           0.8660    0.5000    0.0000 O.3     1  UNL1       -0.4722
@<TRIPOS>BOND
     1     1     4    1
     2     2     5    1
     3     3     6    1
     4     4    14    1
     5     5    14    1
     6     6    17    1
     7     7     8   ar
     8     7    10   ar
     9     8    11   ar
    10     9    10   ar
    11     9    12   ar
    12    10    13    1
    13    11    12   ar
    14    11    15    1
    15    12    17    1
    16    13    14   am
    17    13    16    2
