@<TRIPOS>MOLECULE
IMPHY012992
 29 32 0 0 0
SMALL
GASTEIGER

@<TRIPOS>ATOM
      1 O           7.1097   -1.8875    0.0000 O.3     1  UNL1       -0.4796
      2 O           2.0000    0.3244    0.0000 O.2     1  UNL1       -0.2673
      3 N           3.7602    0.1363    0.0000 N.ar    1  UNL1       -0.2743
      4 N           5.3799   -1.9347    0.0000 N.ar    1  UNL1       -0.2114
      5 C           4.5692   -0.4515    0.0000 C.ar    1  UNL1        0.0834
      6 C           5.3782    0.1363    0.0000 C.ar    1  UNL1        0.0151
      7 C           5.0692    1.0873    0.0000 C.ar    1  UNL1        0.0083
      8 C           4.0692    1.0873    0.0000 C.ar    1  UNL1        0.0579
      9 C           4.4763   -1.4890    0.0000 C.ar    1  UNL1        0.0923
     10 C           2.8022   -0.2727    0.0000 C.ar    1  UNL1        0.2563
     11 C           6.2345   -0.3947    0.0000 C.ar    1  UNL1        0.0098
     12 C           5.6038    1.9813    0.0000 C.ar    1  UNL1       -0.0520
     13 C           3.5345    1.9813    0.0000 C.ar    1  UNL1       -0.0371
     14 C           3.5280   -1.9200    0.0000 C.ar    1  UNL1       -0.0290
     15 C           2.6853   -1.3077    0.0000 C.ar    1  UNL1        0.0054
     16 C           6.2353   -1.4023    0.0000 C.ar    1  UNL1        0.2156
     17 C           5.0900    2.8873    0.0000 C.ar    1  UNL1       -0.0611
     18 C           4.0484    2.8873    0.0000 C.ar    1  UNL1       -0.0598
     19 C           7.1267   -2.8873    0.0000 C.3     1  UNL1        0.0804
     20 H           6.7761   -0.0930    0.0000 H       1  UNL1        0.0677
     21 H           6.2238    1.9741    0.0000 H       1  UNL1        0.0624
     22 H           2.9146    1.9741    0.0000 H       1  UNL1        0.0638
     23 H           3.4656   -2.5368    0.0000 H       1  UNL1        0.0641
     24 H           2.1179   -1.5577    0.0000 H       1  UNL1        0.0672
     25 H           5.4021    3.4231    0.0000 H       1  UNL1        0.0618
     26 H           3.7363    3.4231    0.0000 H       1  UNL1        0.0618
     27 H           6.5068   -2.8979    0.0000 H       1  UNL1        0.0660
     28 H           7.1372   -3.5072    0.0000 H       1  UNL1        0.0660
     29 H           7.7466   -2.8768    0.0000 H       1  UNL1        0.0660
@<TRIPOS>BOND
     1     1    16    1
     2     1    19    1
     3     2    10    2
     4     3     5   ar
     5     3     8   ar
     6     3    10   ar
     7     4     9   ar
     8     4    16   ar
     9     5     6   ar
    10     5     9   ar
    11     6     7   ar
    12     6    11   ar
    13     7     8   ar
    14     7    12   ar
    15     8    13   ar
    16     9    14   ar
    17    10    15   ar
    18    11    16   ar
    19    11    20    1
    20    12    17   ar
    21    12    21    1
    22    13    18   ar
    23    13    22    1
    24    14    15   ar
    25    14    23    1
    26    15    24    1
    27    17    18   ar
    28    17    25    1
    29    18    26    1
    30    19    27    1
    31    19    28    1
    32    19    29    1
