@<TRIPOS>MOLECULE
IMPHY014529
 75 81 0 0 0
SMALL
GASTEIGER

@<TRIPOS>ATOM
      1 O           5.5318   -3.6158    0.0000 O.3     1  UNL1       -0.3636
      2 O           2.8680   -3.1395    0.0000 O.3     1  UNL1       -0.3793
      3 O           4.6497   -0.0808    0.0000 O.2     1  UNL1       -0.2966
      4 O           9.5034    2.8090    0.0000 O.3     1  UNL1       -0.3683
      5 O          11.8707    0.4547    0.0000 O.3     1  UNL1       -0.4576
      6 O          13.6329    0.1901    0.0000 O.2     1  UNL1       -0.2452
      7 C           5.5320   -2.6154    0.0000 C.3     1  UNL1        0.1105
      8 C           7.2641   -1.6154    0.0000 C.3     1  UNL1       -0.0315
      9 C           5.5320   -1.6154    0.0000 C.3     1  UNL1        0.0607
     10 C           6.3981   -1.1154    0.0000 C.3     1  UNL1       -0.0230
     11 C           8.1741   -1.1085    0.0000 C.3     1  UNL1       -0.0322
     12 C           6.3981   -3.1154    0.0000 C.3     1  UNL1        0.0897
     13 C           8.1821   -0.0669    0.0000 C.3     1  UNL1       -0.0257
     14 C           7.2641   -2.6154    0.0000 C.3     1  UNL1       -0.0204
     15 C           9.1702    0.2429    0.0000 C.3     1  UNL1       -0.0271
     16 C           6.3820   -0.0738    0.0000 C.3     1  UNL1       -0.0485
     17 C           7.2800    0.4539    0.0000 C.3     1  UNL1       -0.0468
     18 C           9.1572   -1.4335    0.0000 C.3     1  UNL1       -0.0492
     19 C           4.6381   -3.1500    0.0000 C.3     1  UNL1        0.0064
     20 C           9.7716   -0.6000    0.0000 C.3     1  UNL1       -0.0490
     21 C           4.6381   -1.0807    0.0000 C.2     1  UNL1        0.1447
     22 C           5.5320   -0.6153    0.0000 C.3     1  UNL1       -0.0498
     23 C           9.4881    1.1910    0.0000 C.3     1  UNL1        0.0230
     24 C           8.1898    0.9331    0.0000 C.3     1  UNL1       -0.0590
     25 C           3.7320   -2.6362    0.0000 C.3     1  UNL1        0.0677
     26 C           3.7320   -1.5945    0.0000 C.3     1  UNL1        0.0329
     27 C          10.9262    1.6159    0.0000 C.3     1  UNL1        0.1115
     28 C           8.9080    2.0055    0.0000 C.3     1  UNL1        0.0553
     29 C          11.9086    3.3652    0.0000 C.3     1  UNL1        0.0180
     30 C          10.9357    2.6158    0.0000 C.3     1  UNL1        0.1010
     31 C          12.8112    1.7713    0.0000 C.2     1  UNL1        0.0608
     32 C           2.0000   -2.6428    0.0000 C.3     1  UNL1        0.0368
     33 C          10.9451    3.6158    0.0000 C.3     1  UNL1       -0.0313
     34 C          12.8192    0.7714    0.0000 C.2     1  UNL1        0.3376
     35 C          13.6155    2.3656    0.0000 C.2     1  UNL1       -0.0859
     36 H           7.9969   -2.0460    0.0000 H       1  UNL1        0.0307
     37 H           7.1309   -0.6847    0.0000 H       1  UNL1        0.0314
     38 H           8.2543   -1.9547    0.0000 H       1  UNL1        0.0309
     39 H           6.8232   -3.8514    0.0000 H       1  UNL1        0.0625
     40 H           7.4762   -3.1980    0.0000 H       1  UNL1        0.0294
     41 H           7.8747   -2.5077    0.0000 H       1  UNL1        0.0294
     42 H          10.0109    0.3683    0.0000 H       1  UNL1        0.0311
     43 H           6.1640    0.5066    0.0000 H       1  UNL1        0.0268
     44 H           5.7729   -0.1893    0.0000 H       1  UNL1        0.0268
     45 H           7.6774    0.9299    0.0000 H       1  UNL1        0.0271
     46 H           6.8791    0.9268    0.0000 H       1  UNL1        0.0271
     47 H           8.9018   -1.9985    0.0000 H       1  UNL1        0.0268
     48 H           9.6922   -1.7469    0.0000 H       1  UNL1        0.0268
     49 H           4.2445   -3.6290    0.0000 H       1  UNL1        0.0319
     50 H           5.0427   -3.6198    0.0000 H       1  UNL1        0.0319
     51 H          10.2292   -1.0183    0.0000 H       1  UNL1        0.0268
     52 H          10.2356   -0.1888    0.0000 H       1  UNL1        0.0268
     53 H           6.1520   -0.6153    0.0000 H       1  UNL1        0.0240
     54 H           5.5320    0.0047    0.0000 H       1  UNL1        0.0240
     55 H           4.9120   -0.6153    0.0000 H       1  UNL1        0.0240
     56 H           8.6474    1.0660    0.0000 H       1  UNL1        0.0362
     57 H           8.8098    0.9283    0.0000 H       1  UNL1        0.0235
     58 H           8.1946    1.5530    0.0000 H       1  UNL1        0.0235
     59 H           7.5699    0.9378    0.0000 H       1  UNL1        0.0235
     60 H           3.1945   -2.3272    0.0000 H       1  UNL1        0.0601
     61 H           3.5230   -1.0108    0.0000 H       1  UNL1        0.0367
     62 H           3.1212   -1.7006    0.0000 H       1  UNL1        0.0367
     63 H          10.9182    0.7659    0.0000 H       1  UNL1        0.0738
     64 H           8.4512    2.4247    0.0000 H       1  UNL1        0.0564
     65 H           8.4434    1.5950    0.0000 H       1  UNL1        0.0564
     66 H          12.5240    3.2895    0.0000 H       1  UNL1        0.0332
     67 H          11.7451    3.9632    0.0000 H       1  UNL1        0.0332
     68 H           2.3079   -2.1047    0.0000 H       1  UNL1        0.0524
     69 H           1.4619   -2.3349    0.0000 H       1  UNL1        0.0524
     70 H           1.6921   -3.1810    0.0000 H       1  UNL1        0.0524
     71 H          11.5651    3.6099    0.0000 H       1  UNL1        0.0261
     72 H          10.9510    4.2358    0.0000 H       1  UNL1        0.0261
     73 H          10.3251    3.6216    0.0000 H       1  UNL1        0.0261
     74 H          14.1839    2.1179    0.0000 H       1  UNL1        0.0541
     75 H          13.5458    2.9816    0.0000 H       1  UNL1        0.0541
@<TRIPOS>BOND
     1     7     1    1
     2     1    12    1
     3    25     2    1
     4     2    32    1
     5     3    21    2
     6     4    28    1
     7     4    30    1
     8     5    27    1
     9     5    34    1
    10     6    34    2
    11     7     9    1
    12     7    12    1
    13     7    19    1
    14     8    10    1
    15     8    11    1
    16     8    14    1
    17     8    36    1
    18     9    10    1
    19     9    21    1
    20     9    22    1
    21    10    16    1
    22    10    37    1
    23    11    13    1
    24    11    18    1
    25    11    38    1
    26    12    14    1
    27    12    39    1
    28    13    15    1
    29    13    17    1
    30    13    24    1
    31    14    40    1
    32    14    41    1
    33    15    20    1
    34    15    23    1
    35    15    42    1
    36    16    17    1
    37    16    43    1
    38    16    44    1
    39    17    45    1
    40    17    46    1
    41    18    20    1
    42    18    47    1
    43    18    48    1
    44    19    25    1
    45    19    49    1
    46    19    50    1
    47    20    51    1
    48    20    52    1
    49    21    26    1
    50    22    53    1
    51    22    54    1
    52    22    55    1
    53    23    27    1
    54    23    28    1
    55    23    56    1
    56    24    57    1
    57    24    58    1
    58    24    59    1
    59    25    26    1
    60    25    60    1
    61    26    61    1
    62    26    62    1
    63    27    29    1
    64    27    63    1
    65    28    64    1
    66    28    65    1
    67    29    30    1
    68    29    66    1
    69    29    67    1
    70    30    31    1
    71    30    33    1
    72    31    34    1
    73    31    35    2
    74    32    68    1
    75    32    69    1
    76    32    70    1
    77    33    71    1
    78    33    72    1
    79    33    73    1
    80    35    74    1
    81    35    75    1
