@<TRIPOS>MOLECULE
IMPHY011818
 39 38 0 0 0
SMALL
GASTEIGER

@<TRIPOS>ATOM
      1 C           5.4641    0.6900    0.0000 C.3     1  UNL1       -0.0286
      2 C           4.5981    0.1900    0.0000 C.3     1  UNL1       -0.0308
      3 C           6.3301    0.1900    0.0000 C.2     1  UNL1       -0.0759
      4 C           7.1962    0.6900    0.0000 C.2     1  UNL1       -0.0813
      5 C           3.7320    0.6900    0.0000 C.2     1  UNL1       -0.0850
      6 C           8.0622    0.1900    0.0000 C.3     1  UNL1       -0.0158
      7 C           6.3301   -0.8100    0.0000 C.3     1  UNL1       -0.0438
      8 C           2.8660    0.1900    0.0000 C.2     1  UNL1       -0.0796
      9 C           8.9282    0.6900    0.0000 C.2     1  UNL1       -0.0774
     10 C           2.0000    0.6900    0.0000 C.3     1  UNL1       -0.0440
     11 C           2.8660   -0.8100    0.0000 C.3     1  UNL1       -0.0440
     12 C           9.7942    0.1900    0.0000 C.2     1  UNL1       -0.0546
     13 C          10.6603    0.6900    0.0000 C.3     1  UNL1       -0.0400
     14 C           9.7942   -0.8100    0.0000 C.2     1  UNL1       -0.0662
     15 C          10.6603   -1.3100    0.0000 C.2     1  UNL1       -0.0985
     16 H           5.8626    1.1650    0.0000 H       1  UNL1        0.0313
     17 H           5.0656    1.1650    0.0000 H       1  UNL1        0.0313
     18 H           4.1996   -0.2849    0.0000 H       1  UNL1        0.0310
     19 H           4.9966   -0.2849    0.0000 H       1  UNL1        0.0310
     20 H           7.1962    1.3100    0.0000 H       1  UNL1        0.0575
     21 H           3.7320    1.3100    0.0000 H       1  UNL1        0.0572
     22 H           7.6636   -0.2849    0.0000 H       1  UNL1        0.0350
     23 H           8.4607   -0.2849    0.0000 H       1  UNL1        0.0350
     24 H           5.7101   -0.8100    0.0000 H       1  UNL1        0.0274
     25 H           6.3301   -1.4300    0.0000 H       1  UNL1        0.0274
     26 H           6.9501   -0.8100    0.0000 H       1  UNL1        0.0274
     27 H           8.9282    1.3100    0.0000 H       1  UNL1        0.0578
     28 H           2.3100    1.2269    0.0000 H       1  UNL1        0.0274
     29 H           1.4631    1.0000    0.0000 H       1  UNL1        0.0274
     30 H           1.6900    0.1531    0.0000 H       1  UNL1        0.0274
     31 H           2.2460   -0.8100    0.0000 H       1  UNL1        0.0274
     32 H           2.8660   -1.4300    0.0000 H       1  UNL1        0.0274
     33 H           3.4860   -0.8100    0.0000 H       1  UNL1        0.0274
     34 H          10.9703    0.1531    0.0000 H       1  UNL1        0.0277
     35 H          11.1972    1.0000    0.0000 H       1  UNL1        0.0277
     36 H          10.3503    1.2269    0.0000 H       1  UNL1        0.0277
     37 H           9.2573   -1.1200    0.0000 H       1  UNL1        0.0614
     38 H          10.6603   -1.9300    0.0000 H       1  UNL1        0.0535
     39 H          11.1972   -1.0000    0.0000 H       1  UNL1        0.0535
@<TRIPOS>BOND
     1     1     2    1
     2     1     3    1
     3     1    16    1
     4     1    17    1
     5     2     5    1
     6     2    18    1
     7     2    19    1
     8     3     4    2
     9     3     7    1
    10     4     6    1
    11     4    20    1
    12     5     8    2
    13     5    21    1
    14     6     9    1
    15     6    22    1
    16     6    23    1
    17     7    24    1
    18     7    25    1
    19     7    26    1
    20     8    10    1
    21     8    11    1
    22     9    12    2
    23     9    27    1
    24    10    28    1
    25    10    29    1
    26    10    30    1
    27    11    31    1
    28    11    32    1
    29    11    33    1
    30    12    13    1
    31    12    14    1
    32    13    34    1
    33    13    35    1
    34    13    36    1
    35    14    15    2
    36    14    37    1
    37    15    38    1
    38    15    39    1
