@<TRIPOS>MOLECULE
IMPHY000912
 52 55 0 0 0
SMALL
GASTEIGER

@<TRIPOS>ATOM
      1 S          11.8295   -0.7726    0.0000 S.3     1  UNL1       -0.0476
      2 O           8.0650    3.3718    0.0000 O.3     1  UNL1       -0.4532
      3 O           6.8671   -0.7031    0.0000 O.3     1  UNL1       -0.3093
      4 O           6.0010    0.7969    0.0000 O.2     1  UNL1       -0.4699
      5 O           5.1350   -0.7031    0.0000 O.3     1  UNL1       -0.3404
      6 O           6.8671   -2.7031    0.0000 O.3     1  UNL1       -0.3841
      7 O          10.2854    0.0120    0.0000 O.3     1  UNL1       -0.4523
      8 O           5.1350   -3.7031    0.0000 O.3     1  UNL1       -0.3864
      9 O           3.4030   -2.7031    0.0000 O.3     1  UNL1       -0.3865
     10 O           6.4084    4.0131    0.0000 O.2     1  UNL1       -0.2452
     11 O           2.5369   -1.2031    0.0000 O.3     1  UNL1       -0.3924
     12 O          10.3780   -1.7176    0.0000 O.2     1  UNL1       -0.2374
     13 C           7.7331    1.7969    0.0000 C.3     1  UNL1        0.0469
     14 C           7.7331    0.7969    0.0000 C.3     1  UNL1        0.0567
     15 C           8.4701    2.4640    0.0000 C.3     1  UNL1        0.1297
     16 C           6.8671    0.2969    0.0000 C.3     1  UNL1        0.2107
     17 C           8.7412    0.7966    0.0000 C.2     1  UNL1       -0.0234
     18 C           6.8671    2.2969    0.0000 C.2     1  UNL1        0.0784
     19 C           9.1489    1.7186    0.0000 C.2     1  UNL1       -0.0404
     20 C           6.0010   -1.2031    0.0000 C.3     1  UNL1        0.1918
     21 C           7.0763    3.2688    0.0000 C.2     1  UNL1        0.3391
     22 C           6.0010   -2.2031    0.0000 C.3     1  UNL1        0.1342
     23 C           6.0010    1.7969    0.0000 C.2     1  UNL1        0.0983
     24 C           9.2868   -0.0415    0.0000 C.3     1  UNL1        0.1150
     25 C           5.1350   -2.7031    0.0000 C.3     1  UNL1        0.1141
     26 C           4.2690   -2.2031    0.0000 C.3     1  UNL1        0.1119
     27 C           4.2690   -1.2031    0.0000 C.3     1  UNL1        0.1130
     28 C           3.4030   -0.7031    0.0000 C.3     1  UNL1        0.0730
     29 C          10.8310   -0.8261    0.0000 C.2     1  UNL1        0.3685
     30 C          12.3751   -1.6107    0.0000 C.3     1  UNL1       -0.0075
     31 H           7.7331    2.6469    0.0000 H       1  UNL1        0.0399
     32 H           7.9529   -0.0241    0.0000 H       1  UNL1        0.0415
     33 H           9.1815    2.9293    0.0000 H       1  UNL1        0.0786
     34 H           7.4040   -0.0131    0.0000 H       1  UNL1        0.1062
     35 H           9.7608    1.8181    0.0000 H       1  UNL1        0.0609
     36 H           6.0010   -0.5831    0.0000 H       1  UNL1        0.0939
     37 H           6.0010   -2.8231    0.0000 H       1  UNL1        0.0671
     38 H           5.4641    2.1069    0.0000 H       1  UNL1        0.1029
     39 H           8.7164   -0.2844    0.0000 H       1  UNL1        0.0746
     40 H           9.4270   -0.6454    0.0000 H       1  UNL1        0.0746
     41 H           4.5981   -3.0131    0.0000 H       1  UNL1        0.0648
     42 H           3.7320   -1.8931    0.0000 H       1  UNL1        0.0647
     43 H           4.2690   -0.5831    0.0000 H       1  UNL1        0.0647
     44 H           3.8015   -0.2281    0.0000 H       1  UNL1        0.0584
     45 H           3.0044   -0.2281    0.0000 H       1  UNL1        0.0584
     46 H           6.8671   -3.3231    0.0000 H       1  UNL1        0.2101
     47 H           4.5981   -4.0131    0.0000 H       1  UNL1        0.2100
     48 H           3.4030   -3.3231    0.0000 H       1  UNL1        0.2100
     49 H           2.0000   -0.8931    0.0000 H       1  UNL1        0.2095
     50 H          11.8555   -1.9490    0.0000 H       1  UNL1        0.0346
     51 H          12.7134   -2.1303    0.0000 H       1  UNL1        0.0346
     52 H          12.8947   -1.2724    0.0000 H       1  UNL1        0.0346
@<TRIPOS>BOND
     1     1    29    1
     2     1    30    1
     3     2    15    1
     4     2    21    1
     5    16     3    1
     6    20     3    1
     7     4    16    1
     8     4    23    1
     9     5    20    1
    10     5    27    1
    11    22     6    1
    12     6    46    1
    13     7    24    1
    14     7    29    1
    15    25     8    1
    16     8    47    1
    17    26     9    1
    18     9    48    1
    19    10    21    2
    20    11    28    1
    21    11    49    1
    22    12    29    2
    23    13    14    1
    24    13    15    1
    25    13    18    1
    26    13    31    1
    27    14    16    1
    28    14    17    1
    29    14    32    1
    30    15    19    1
    31    15    33    1
    32    16    34    1
    33    17    19    2
    34    17    24    1
    35    18    21    1
    36    18    23    2
    37    19    35    1
    38    20    22    1
    39    20    36    1
    40    22    25    1
    41    22    37    1
    42    23    38    1
    43    24    39    1
    44    24    40    1
    45    25    26    1
    46    25    41    1
    47    26    27    1
    48    26    42    1
    49    27    28    1
    50    27    43    1
    51    28    44    1
    52    28    45    1
    53    30    50    1
    54    30    51    1
    55    30    52    1
