@<TRIPOS>MOLECULE
IMPHY000664
 56 58 0 0 0
SMALL
GASTEIGER

@<TRIPOS>ATOM
      1 O           8.0901   -1.6305    0.0000 O.2     1  UNL1       -0.4618
      2 O           6.3301    1.4042    0.0000 O.3     1  UNL1       -0.5055
      3 O           4.5981   -1.5958    0.0000 O.3     1  UNL1       -0.5062
      4 O           8.0785    1.4388    0.0000 O.2     1  UNL1       -0.2863
      5 O          12.4525    1.9383    0.0000 O.3     1  UNL1       -0.5065
      6 C           7.1962   -0.0958    0.0000 C.ar    1  UNL1        0.1063
      7 C           5.4641   -0.0958    0.0000 C.ar    1  UNL1        0.0400
      8 C           8.9962   -0.0750    0.0000 C.ar    1  UNL1        0.0644
      9 C           6.3301    0.4042    0.0000 C.ar    1  UNL1        0.1381
     10 C           7.1962   -1.0958    0.0000 C.ar    1  UNL1        0.1454
     11 C           9.8602    0.4283    0.0000 C.ar    1  UNL1       -0.0108
     12 C           8.0901    0.4388    0.0000 C.ar    1  UNL1        0.2037
     13 C           4.5981    0.4042    0.0000 C.3     1  UNL1       -0.0023
     14 C           5.4641   -1.0958    0.0000 C.ar    1  UNL1        0.1273
     15 C          11.5923    0.4350    0.0000 C.ar    1  UNL1       -0.0017
     16 C           6.3301   -1.5958    0.0000 C.ar    1  UNL1        0.0234
     17 C          10.7282   -0.0683    0.0000 C.ar    1  UNL1       -0.0469
     18 C           8.9962   -1.1166    0.0000 C.ar    1  UNL1        0.1038
     19 C          12.4602   -0.0617    0.0000 C.3     1  UNL1       -0.0058
     20 C           9.8564    1.4283    0.0000 C.ar    1  UNL1       -0.0504
     21 C          11.5884    1.4350    0.0000 C.ar    1  UNL1        0.1203
     22 C           3.7320   -0.0958    0.0000 C.2     1  UNL1       -0.0807
     23 C          10.7205    1.9316    0.0000 C.ar    1  UNL1       -0.0193
     24 C          12.4641   -1.0617    0.0000 C.2     1  UNL1       -0.0809
     25 C           2.8660    0.4042    0.0000 C.2     1  UNL1       -0.0793
     26 C          13.3320   -1.5583    0.0000 C.2     1  UNL1       -0.0793
     27 C           2.0000   -0.0958    0.0000 C.3     1  UNL1       -0.0440
     28 C           2.8660    1.4042    0.0000 C.3     1  UNL1       -0.0440
     29 C          13.3359   -2.5583    0.0000 C.3     1  UNL1       -0.0440
     30 C          14.1961   -1.0550    0.0000 C.3     1  UNL1       -0.0440
     31 H           4.9966    0.8791    0.0000 H       1  UNL1        0.0358
     32 H           4.1996    0.8791    0.0000 H       1  UNL1        0.0358
     33 H           6.3301   -2.2158    0.0000 H       1  UNL1        0.0691
     34 H          10.7306   -0.6883    0.0000 H       1  UNL1        0.0628
     35 H           9.5319   -1.4287    0.0000 H       1  UNL1        0.1037
     36 H          13.0712   -0.1670    0.0000 H       1  UNL1        0.0357
     37 H          12.6700    0.5218    0.0000 H       1  UNL1        0.0357
     38 H           9.3183    1.7362    0.0000 H       1  UNL1        0.0625
     39 H           3.7320   -0.7158    0.0000 H       1  UNL1        0.0575
     40 H          10.7181    2.5516    0.0000 H       1  UNL1        0.0654
     41 H          11.9284   -1.3737    0.0000 H       1  UNL1        0.0575
     42 H           5.7932    1.7142    0.0000 H       1  UNL1        0.2922
     43 H           4.5981   -2.2158    0.0000 H       1  UNL1        0.2921
     44 H           1.6900    0.4411    0.0000 H       1  UNL1        0.0274
     45 H           1.4631   -0.4058    0.0000 H       1  UNL1        0.0274
     46 H           2.3100   -0.6328    0.0000 H       1  UNL1        0.0274
     47 H           3.4860    1.4042    0.0000 H       1  UNL1        0.0274
     48 H           2.8660    2.0242    0.0000 H       1  UNL1        0.0274
     49 H           2.2460    1.4042    0.0000 H       1  UNL1        0.0274
     50 H          12.4501    2.5583    0.0000 H       1  UNL1        0.2921
     51 H          12.7159   -2.5607    0.0000 H       1  UNL1        0.0274
     52 H          14.5082   -1.5907    0.0000 H       1  UNL1        0.0274
     53 H          14.7319   -0.7429    0.0000 H       1  UNL1        0.0274
     54 H          13.8841   -0.5192    0.0000 H       1  UNL1        0.0274
     55 H          13.3383   -3.1783    0.0000 H       1  UNL1        0.0274
     56 H          13.9559   -2.5559    0.0000 H       1  UNL1        0.0274
@<TRIPOS>BOND
     1     1    10   ar
     2     1    18   ar
     3     2     9    1
     4     2    42    1
     5     3    14    1
     6     3    43    1
     7     4    12    2
     8     5    21    1
     9     5    50    1
    10     6     9   ar
    11     6    10   ar
    12     6    12   ar
    13     7     9   ar
    14     7    13    1
    15     7    14   ar
    16     8    11    1
    17     8    12   ar
    18     8    18   ar
    19    10    16   ar
    20    11    17   ar
    21    11    20   ar
    22    13    22    1
    23    13    31    1
    24    13    32    1
    25    14    16   ar
    26    15    17   ar
    27    15    19    1
    28    15    21   ar
    29    16    33    1
    30    17    34    1
    31    18    35    1
    32    19    24    1
    33    19    36    1
    34    19    37    1
    35    20    23   ar
    36    20    38    1
    37    21    23   ar
    38    22    25    2
    39    22    39    1
    40    23    40    1
    41    24    26    2
    42    24    41    1
    43    25    27    1
    44    25    28    1
    45    26    29    1
    46    26    30    1
    47    27    44    1
    48    27    45    1
    49    27    46    1
    50    28    47    1
    51    28    48    1
    52    28    49    1
    53    29    51    1
    54    29    55    1
    55    29    56    1
    56    30    52    1
    57    30    53    1
    58    30    54    1
