@<TRIPOS>MOLECULE
IMPHY009000
 32 34 0 0 0
SMALL
GASTEIGER

@<TRIPOS>ATOM
      1 O           5.5923   -1.6692    0.0000 O.3     1  UNL1       -0.4929
      2 O           2.6049    2.2008    0.0000 O.3     1  UNL1       -0.5047
      3 N           4.7273    1.6018    0.0000 N.ar    1  UNL1       -0.3498
      4 N           7.2547    0.4776    0.0000 N.ar    1  UNL1       -0.2542
      5 C           5.2273    0.0630    0.0000 C.ar    1  UNL1        0.0524
      6 C           5.5364    1.0140    0.0000 C.ar    1  UNL1        0.0727
      7 C           4.2273    0.0630    0.0000 C.ar    1  UNL1        0.0146
      8 C           3.9183    1.0140    0.0000 C.ar    1  UNL1        0.0896
      9 C           6.5518    1.2463    0.0000 C.ar    1  UNL1        0.0651
     10 C           5.9123   -0.7218    0.0000 C.ar    1  UNL1        0.1478
     11 C           6.8498    2.2008    0.0000 C.3     1  UNL1       -0.0112
     12 C           3.5424   -0.7218    0.0000 C.ar    1  UNL1       -0.0517
     13 C           2.9029    1.2463    0.0000 C.ar    1  UNL1        0.1407
     14 C           6.9328   -0.5131    0.0000 C.ar    1  UNL1        0.0702
     15 C           2.5219   -0.5131    0.0000 C.ar    1  UNL1       -0.0576
     16 C           2.2000    0.4776    0.0000 C.ar    1  UNL1       -0.0181
     17 C           7.8254    2.4200    0.0000 C.3     1  UNL1       -0.0598
     18 C           6.2528   -2.4200    0.0000 C.3     1  UNL1        0.0789
     19 H           4.7273    2.2218    0.0000 H       1  UNL1        0.1661
     20 H           6.8210    2.8202    0.0000 H       1  UNL1        0.0326
     21 H           6.2348    2.2800    0.0000 H       1  UNL1        0.0326
     22 H           3.7408   -1.3092    0.0000 H       1  UNL1        0.0624
     23 H           7.3459   -0.9754    0.0000 H       1  UNL1        0.0867
     24 H           2.1088   -0.9754    0.0000 H       1  UNL1        0.0619
     25 H           1.5940    0.6088    0.0000 H       1  UNL1        0.0655
     26 H           7.9614    1.8151    0.0000 H       1  UNL1        0.0233
     27 H           8.4304    2.5559    0.0000 H       1  UNL1        0.0233
     28 H           7.6895    3.0250    0.0000 H       1  UNL1        0.0233
     29 H           2.0000    2.3367    0.0000 H       1  UNL1        0.2922
     30 H           5.7873   -2.8295    0.0000 H       1  UNL1        0.0660
     31 H           6.6623   -2.8856    0.0000 H       1  UNL1        0.0660
     32 H           6.7183   -2.0105    0.0000 H       1  UNL1        0.0660
@<TRIPOS>BOND
     1     1    10    1
     2     1    18    1
     3     2    13    1
     4     2    29    1
     5     3     6   ar
     6     3     8   ar
     7     3    19    1
     8     4     9   ar
     9     4    14   ar
    10     5     6   ar
    11     5     7   ar
    12     5    10   ar
    13     6     9   ar
    14     7     8   ar
    15     7    12   ar
    16     8    13   ar
    17     9    11    1
    18    10    14   ar
    19    11    17    1
    20    11    20    1
    21    11    21    1
    22    12    15   ar
    23    12    22    1
    24    13    16   ar
    25    14    23    1
    26    15    16   ar
    27    15    24    1
    28    16    25    1
    29    17    26    1
    30    17    27    1
    31    17    28    1
    32    18    30    1
    33    18    31    1
    34    18    32    1
