@<TRIPOS>MOLECULE
IMPHY009175
 80 85 0 0 0
SMALL
GASTEIGER

@<TRIPOS>ATOM
      1 O           4.2396    3.2094    0.0000 O.3     1  UNL1       -0.3477
      2 O           4.6396    4.8094    0.0000 O.3     1  UNL1       -0.3640
      3 O           2.8776   -4.5966    0.0000 O.3     1  UNL1       -0.4800
      4 O           2.0000   -3.1033    0.0000 O.2     1  UNL1       -0.2500
      5 C           4.6396    1.8094    0.0000 C.3     1  UNL1        0.0012
      6 C           3.7577    0.2402    0.0000 C.3     1  UNL1       -0.0227
      7 C           4.6557    0.7679    0.0000 C.3     1  UNL1       -0.0271
      8 C           3.7736    2.3094    0.0000 C.3     1  UNL1       -0.0230
      9 C           3.7493   -0.8448    0.0000 C.3     1  UNL1       -0.0198
     10 C           3.7736    3.3094    0.0000 C.3     1  UNL1        0.0223
     11 C           2.8556    0.7610    0.0000 C.3     1  UNL1       -0.0465
     12 C           4.6889   -1.3873    0.0000 C.3     1  UNL1       -0.0129
     13 C           2.8636    1.8026    0.0000 C.3     1  UNL1       -0.0484
     14 C           5.5057    2.3094    0.0000 C.3     1  UNL1       -0.0399
     15 C           5.6076    0.2473    0.0000 C.3     1  UNL1       -0.0486
     16 C           4.6396    3.8094    0.0000 C.3     1  UNL1        0.1726
     17 C           4.2396    2.4094    0.0000 C.3     1  UNL1        0.0571
     18 C           5.6244   -0.8376    0.0000 C.3     1  UNL1       -0.0457
     19 C           5.5057    3.3094    0.0000 C.3     1  UNL1        0.0023
     20 C           2.7620   -1.3947    0.0000 C.3     1  UNL1       -0.0453
     21 C           2.7742    0.0590    0.0000 C.3     1  UNL1       -0.0588
     22 C           4.7064   -2.5173    0.0000 C.2     1  UNL1       -0.0527
     23 C           3.7320   -3.0899    0.0000 C.3     1  UNL1        0.0888
     24 C           2.7645   -0.6711    0.0000 C.3     1  UNL1       -0.0585
     25 C           2.7532   -2.5248    0.0000 C.3     1  UNL1       -0.0329
     26 C           3.2736    4.1755    0.0000 C.3     1  UNL1       -0.0546
     27 C           2.7736    3.3094    0.0000 C.3     1  UNL1       -0.0546
     28 C           3.7229   -4.2671    0.0000 C.3     1  UNL1       -0.0327
     29 C           5.7392   -3.0822    0.0000 C.2     1  UNL1       -0.0778
     30 C           5.7574   -4.2593    0.0000 C.3     1  UNL1       -0.0165
     31 C           4.7424   -4.8557    0.0000 C.3     1  UNL1       -0.0431
     32 C           2.8698   -3.5966    0.0000 C.2     1  UNL1        0.3150
     33 C           6.2673   -5.1194    0.0000 C.3     1  UNL1       -0.0563
     34 C           6.7573   -4.2477    0.0000 C.3     1  UNL1       -0.0563
     35 H           5.3835    1.2070    0.0000 H       1  UNL1        0.0312
     36 H           3.0375    2.7344    0.0000 H       1  UNL1        0.0314
     37 H           2.2456    0.8718    0.0000 H       1  UNL1        0.0271
     38 H           2.6420    0.1789    0.0000 H       1  UNL1        0.0271
     39 H           5.4299   -1.8037    0.0000 H       1  UNL1        0.0351
     40 H           2.6591    2.3879    0.0000 H       1  UNL1        0.0268
     41 H           2.2520    1.7012    0.0000 H       1  UNL1        0.0268
     42 H           5.7177    1.7268    0.0000 H       1  UNL1        0.0273
     43 H           6.1163    2.4171    0.0000 H       1  UNL1        0.0273
     44 H           6.2200    0.1506    0.0000 H       1  UNL1        0.0268
     45 H           5.8077    0.8342    0.0000 H       1  UNL1        0.0268
     46 H           3.6526    2.6089    0.0000 H       1  UNL1        0.0566
     47 H           4.8330    2.5891    0.0000 H       1  UNL1        0.0566
     48 H           5.8424   -1.4180    0.0000 H       1  UNL1        0.0271
     49 H           6.2335   -0.7221    0.0000 H       1  UNL1        0.0271
     50 H           6.1163    3.2018    0.0000 H       1  UNL1        0.0317
     51 H           5.7177    3.8920    0.0000 H       1  UNL1        0.0317
     52 H           2.5574   -0.8094    0.0000 H       1  UNL1        0.0271
     53 H           2.1503   -1.4961    0.0000 H       1  UNL1        0.0271
     54 H           2.6619    0.6687    0.0000 H       1  UNL1        0.0235
     55 H           2.1645   -0.0534    0.0000 H       1  UNL1        0.0235
     56 H           2.8866   -0.5508    0.0000 H       1  UNL1        0.0235
     57 H           2.8722   -0.0606    0.0000 H       1  UNL1        0.0235
     58 H           2.1539   -0.5635    0.0000 H       1  UNL1        0.0235
     59 H           2.6568   -1.2817    0.0000 H       1  UNL1        0.0235
     60 H           2.1432   -2.4140    0.0000 H       1  UNL1        0.0279
     61 H           2.5397   -3.1069    0.0000 H       1  UNL1        0.0279
     62 H           2.7736    3.9294    0.0000 H       1  UNL1        0.0237
     63 H           2.1536    3.3094    0.0000 H       1  UNL1        0.0237
     64 H           2.7736    2.6894    0.0000 H       1  UNL1        0.0237
     65 H           3.8106    4.4855    0.0000 H       1  UNL1        0.0237
     66 H           2.9636    4.7124    0.0000 H       1  UNL1        0.0237
     67 H           2.7367    3.8655    0.0000 H       1  UNL1        0.0237
     68 H           3.1129   -4.1563    0.0000 H       1  UNL1        0.0279
     69 H           3.5094   -4.8492    0.0000 H       1  UNL1        0.0279
     70 H           6.2701   -2.7619    0.0000 H       1  UNL1        0.0577
     71 H           5.1766    5.1194    0.0000 H       1  UNL1        0.2128
     72 H           4.3451   -5.3317    0.0000 H       1  UNL1        0.0274
     73 H           5.1434   -5.3286    0.0000 H       1  UNL1        0.0274
     74 H           5.7340   -5.4356    0.0000 H       1  UNL1        0.0238
     75 H           6.5835   -5.6528    0.0000 H       1  UNL1        0.0238
     76 H           6.8006   -4.8032    0.0000 H       1  UNL1        0.0238
     77 H           6.7644   -4.8676    0.0000 H       1  UNL1        0.0238
     78 H           7.3772   -4.2405    0.0000 H       1  UNL1        0.0238
     79 H           6.7501   -3.6277    0.0000 H       1  UNL1        0.0238
     80 H           2.3430   -4.9107    0.0000 H       1  UNL1        0.2951
@<TRIPOS>BOND
     1     1    16    1
     2     1    17    1
     3    16     2    1
     4     2    71    1
     5     3    32    1
     6     3    80    1
     7     4    32    2
     8     5     7    1
     9     5     8    1
    10     5    14    1
    11     5    17    1
    12     6     7    1
    13     6     9    1
    14     6    11    1
    15     6    21    1
    16     7    15    1
    17     7    35    1
    18     8    10    1
    19     8    13    1
    20     8    36    1
    21     9    12    1
    22     9    20    1
    23     9    24    1
    24    10    16    1
    25    10    26    1
    26    10    27    1
    27    11    13    1
    28    11    37    1
    29    11    38    1
    30    12    18    1
    31    12    22    1
    32    12    39    1
    33    13    40    1
    34    13    41    1
    35    14    19    1
    36    14    42    1
    37    14    43    1
    38    15    18    1
    39    15    44    1
    40    15    45    1
    41    16    19    1
    42    17    46    1
    43    17    47    1
    44    18    48    1
    45    18    49    1
    46    19    50    1
    47    19    51    1
    48    20    25    1
    49    20    52    1
    50    20    53    1
    51    21    54    1
    52    21    55    1
    53    21    56    1
    54    22    23    1
    55    22    29    2
    56    23    25    1
    57    23    28    1
    58    23    32    1
    59    24    57    1
    60    24    58    1
    61    24    59    1
    62    25    60    1
    63    25    61    1
    64    26    65    1
    65    26    66    1
    66    26    67    1
    67    27    62    1
    68    27    63    1
    69    27    64    1
    70    28    31    1
    71    28    68    1
    72    28    69    1
    73    29    30    1
    74    29    70    1
    75    30    31    1
    76    30    33    1
    77    30    34    1
    78    31    72    1
    79    31    73    1
    80    33    74    1
    81    33    75    1
    82    33    76    1
    83    34    77    1
    84    34    78    1
    85    34    79    1
