@<TRIPOS>MOLECULE
IMPHY005483
 33 35 0 0 0
SMALL
GASTEIGER

@<TRIPOS>ATOM
      1 O           6.3580   -0.9259    0.0000 O.2     1  UNL1       -0.4507
      2 O           2.8660   -0.8913    0.0000 O.3     1  UNL1       -0.4912
      3 O           4.5981   -1.8913    0.0000 O.3     1  UNL1       -0.5009
      4 O           4.5981    2.1087    0.0000 O.3     1  UNL1       -0.5058
      5 O           6.3465    2.1433    0.0000 O.2     1  UNL1       -0.2869
      6 C           5.4641    0.6087    0.0000 C.ar    1  UNL1        0.1091
      7 C           5.4641   -0.3913    0.0000 C.ar    1  UNL1        0.1876
      8 C           7.2641   -0.4121    0.0000 C.ar    1  UNL1        0.1394
      9 C           4.5981   -0.8913    0.0000 C.ar    1  UNL1        0.2026
     10 C           4.5981    1.1087    0.0000 C.ar    1  UNL1        0.1349
     11 C           6.3580    1.1434    0.0000 C.ar    1  UNL1        0.1967
     12 C           7.2641    0.6296    0.0000 C.ar    1  UNL1        0.0288
     13 C           3.7320   -0.3913    0.0000 C.ar    1  UNL1        0.1685
     14 C           8.1282   -0.9154    0.0000 C.ar    1  UNL1        0.0174
     15 C           3.7320    0.6087    0.0000 C.ar    1  UNL1        0.0261
     16 C           8.1244   -1.9154    0.0000 C.ar    1  UNL1       -0.0511
     17 C           8.9962   -0.4188    0.0000 C.ar    1  UNL1       -0.0511
     18 C           8.9884   -2.4187    0.0000 C.ar    1  UNL1       -0.0611
     19 C           9.8602   -0.9221    0.0000 C.ar    1  UNL1       -0.0611
     20 C           9.8564   -1.9221    0.0000 C.ar    1  UNL1       -0.0617
     21 C           2.0000   -0.3913    0.0000 C.3     1  UNL1        0.0790
     22 H           7.7998    0.9416    0.0000 H       1  UNL1        0.0693
     23 H           3.1951    0.9187    0.0000 H       1  UNL1        0.0692
     24 H           7.5862   -2.2233    0.0000 H       1  UNL1        0.0625
     25 H           8.9985    0.2012    0.0000 H       1  UNL1        0.0625
     26 H           8.9860   -3.0387    0.0000 H       1  UNL1        0.0618
     27 H          10.3984   -0.6142    0.0000 H       1  UNL1        0.0618
     28 H          10.3921   -2.2342    0.0000 H       1  UNL1        0.0618
     29 H           4.0611   -2.2013    0.0000 H       1  UNL1        0.2924
     30 H           4.0611    2.4187    0.0000 H       1  UNL1        0.2922
     31 H           2.3100    0.1457    0.0000 H       1  UNL1        0.0660
     32 H           1.4631   -0.0813    0.0000 H       1  UNL1        0.0660
     33 H           1.6900   -0.9282    0.0000 H       1  UNL1        0.0660
@<TRIPOS>BOND
     1     1     7   ar
     2     1     8   ar
     3     2    13    1
     4     2    21    1
     5     3     9    1
     6     3    29    1
     7     4    10    1
     8     4    30    1
     9     5    11    2
    10     6     7   ar
    11     6    10   ar
    12     6    11   ar
    13     7     9   ar
    14     8    12   ar
    15     8    14    1
    16     9    13   ar
    17    10    15   ar
    18    11    12   ar
    19    12    22    1
    20    13    15   ar
    21    14    16   ar
    22    14    17   ar
    23    15    23    1
    24    16    18   ar
    25    16    24    1
    26    17    19   ar
    27    17    25    1
    28    18    20   ar
    29    18    26    1
    30    19    20   ar
    31    19    27    1
    32    20    28    1
    33    21    31    1
    34    21    32    1
    35    21    33    1
