@<TRIPOS>MOLECULE
IMPHY007509
 21 23 0 0 0
SMALL
GASTEIGER

@<TRIPOS>ATOM
      1 O           6.4783    0.8047    0.0000 O.3     1  UNL1       -0.4526
      2 O           6.4783   -0.8047    0.0000 O.3     1  UNL1       -0.4526
      3 C           3.8000   -0.5000    0.0000 C.ar    1  UNL1       -0.0142
      4 C           3.8000    0.5000    0.0000 C.ar    1  UNL1       -0.0142
      5 C           5.5321   -0.5000    0.0000 C.ar    1  UNL1        0.1668
      6 C           5.5321    0.5000    0.0000 C.ar    1  UNL1        0.1668
      7 C           4.6660   -1.0000    0.0000 C.ar    1  UNL1       -0.0084
      8 C           4.6660    1.0000    0.0000 C.ar    1  UNL1       -0.0084
      9 C           7.0619    0.0000    0.0000 C.3     1  UNL1        0.2332
     10 C           2.9061   -1.0347    0.0000 C.ar    1  UNL1       -0.0539
     11 C           2.9061    1.0347    0.0000 C.ar    1  UNL1       -0.0539
     12 C           2.0000    0.5208    0.0000 C.ar    1  UNL1       -0.0612
     13 C           2.0000   -0.5208    0.0000 C.ar    1  UNL1       -0.0612
     14 H           4.6660   -1.6200    0.0000 H       1  UNL1        0.0661
     15 H           4.6660    1.6200    0.0000 H       1  UNL1        0.0661
     16 H           7.5228   -0.4147    0.0000 H       1  UNL1        0.1166
     17 H           7.5228    0.4147    0.0000 H       1  UNL1        0.1166
     18 H           2.9132   -1.6546    0.0000 H       1  UNL1        0.0624
     19 H           2.9132    1.6546    0.0000 H       1  UNL1        0.0624
     20 H           1.4643   -0.8329    0.0000 H       1  UNL1        0.0618
     21 H           1.4643    0.8329    0.0000 H       1  UNL1        0.0618
@<TRIPOS>BOND
     1     1     6    1
     2     1     9    1
     3     2     5    1
     4     2     9    1
     5     3     4   ar
     6     3     7   ar
     7     3    10   ar
     8     4     8   ar
     9     4    11   ar
    10     5     6   ar
    11     5     7   ar
    12     6     8   ar
    13     7    14    1
    14     8    15    1
    15     9    16    1
    16     9    17    1
    17    10    13   ar
    18    10    18    1
    19    11    12   ar
    20    11    19    1
    21    12    13   ar
    22    12    21    1
    23    13    20    1
