@<TRIPOS>MOLECULE
IMPHY008932
 33 35 0 0 0
SMALL
GASTEIGER

@<TRIPOS>ATOM
      1 O           5.5301   -1.7379    0.0000 O.3     1  UNL1       -0.4900
      2 O           5.5301    1.2621    0.0000 O.2     1  UNL1       -0.2910
      3 O           8.1282   -1.2379    0.0000 O.3     1  UNL1       -0.5064
      4 O           3.7817    1.2967    0.0000 O.3     1  UNL1       -0.5058
      5 O           2.0000   -1.7621    0.0000 O.3     1  UNL1       -0.5065
      6 O           9.8602    1.7621    0.0000 O.3     1  UNL1       -0.5066
      7 C           6.3961   -0.2379    0.0000 C.3     1  UNL1        0.0847
      8 C           6.3961   -1.2379    0.0000 C.3     1  UNL1        0.1036
      9 C           5.5301    0.2621    0.0000 C.2     1  UNL1        0.1809
     10 C           7.2622    0.2621    0.0000 C.ar    1  UNL1        0.0081
     11 C           4.6641   -0.2379    0.0000 C.ar    1  UNL1        0.1012
     12 C           4.6641   -1.2379    0.0000 C.ar    1  UNL1        0.1380
     13 C           8.1282   -0.2379    0.0000 C.ar    1  UNL1        0.1243
     14 C           3.7702    0.2967    0.0000 C.ar    1  UNL1        0.1343
     15 C           7.2622    1.2621    0.0000 C.ar    1  UNL1       -0.0509
     16 C           3.7702   -1.7726    0.0000 C.ar    1  UNL1        0.0225
     17 C           2.8641   -0.2171    0.0000 C.ar    1  UNL1        0.0222
     18 C           2.8641   -1.2587    0.0000 C.ar    1  UNL1        0.1238
     19 C           8.9942    0.2621    0.0000 C.ar    1  UNL1        0.0216
     20 C           8.1282    1.7621    0.0000 C.ar    1  UNL1       -0.0197
     21 C           8.9942    1.2621    0.0000 C.ar    1  UNL1        0.1203
     22 H           6.9331   -0.5479    0.0000 H       1  UNL1        0.0464
     23 H           6.6082   -1.8205    0.0000 H       1  UNL1        0.0707
     24 H           7.0067   -1.1303    0.0000 H       1  UNL1        0.0707
     25 H           6.7252    1.5721    0.0000 H       1  UNL1        0.0623
     26 H           3.7773   -2.3926    0.0000 H       1  UNL1        0.0691
     27 H           2.3284    0.0950    0.0000 H       1  UNL1        0.0691
     28 H           9.5312   -0.0479    0.0000 H       1  UNL1        0.0691
     29 H           8.1282    2.3821    0.0000 H       1  UNL1        0.0654
     30 H           8.6651   -1.5479    0.0000 H       1  UNL1        0.2921
     31 H           3.2484    1.6129    0.0000 H       1  UNL1        0.2922
     32 H           2.0024   -2.3821    0.0000 H       1  UNL1        0.2921
     33 H           9.8602    2.3821    0.0000 H       1  UNL1        0.2921
@<TRIPOS>BOND
     1     1     8    1
     2     1    12    1
     3     2     9    2
     4     3    13    1
     5     3    30    1
     6     4    14    1
     7     4    31    1
     8     5    18    1
     9     5    32    1
    10     6    21    1
    11     6    33    1
    12     7     8    1
    13     7     9    1
    14     7    10    1
    15     7    22    1
    16     8    23    1
    17     8    24    1
    18     9    11    1
    19    10    13   ar
    20    10    15   ar
    21    11    12   ar
    22    11    14   ar
    23    12    16   ar
    24    13    19   ar
    25    14    17   ar
    26    15    20   ar
    27    15    25    1
    28    16    18   ar
    29    16    26    1
    30    17    18   ar
    31    17    27    1
    32    19    21   ar
    33    19    28    1
    34    20    21   ar
    35    20    29    1
