@<TRIPOS>MOLECULE
IMPHY003467
 48 50 0 0 0
SMALL
GASTEIGER

@<TRIPOS>ATOM
      1 O           4.6497    2.0346    0.0000 O.2     1  UNL1       -0.2920
      2 O           7.4144   -2.0346    0.0000 O.2     1  UNL1       -0.2920
      3 O           4.6497   -2.0346    0.0000 O.2     1  UNL1       -0.2920
      4 O           7.4144    2.0346    0.0000 O.2     1  UNL1       -0.2920
      5 C           5.5320    0.5000    0.0000 C.3     1  UNL1        0.0516
      6 C           6.5320   -0.5000    0.0000 C.3     1  UNL1        0.0516
      7 C           5.5320   -0.5000    0.0000 C.3     1  UNL1        0.0479
      8 C           6.5320    0.5000    0.0000 C.3     1  UNL1        0.0479
      9 C           5.5320    1.5000    0.0000 C.3     1  UNL1       -0.0511
     10 C           6.5320   -1.5000    0.0000 C.3     1  UNL1       -0.0511
     11 C           4.6381    1.0347    0.0000 C.2     1  UNL1        0.1637
     12 C           7.4260   -1.0347    0.0000 C.2     1  UNL1        0.1637
     13 C           4.6381   -1.0347    0.0000 C.2     1  UNL1        0.1645
     14 C           7.4260    1.0347    0.0000 C.2     1  UNL1        0.1645
     15 C           3.7320   -0.5208    0.0000 C.2     1  UNL1        0.0012
     16 C           8.3321    0.5208    0.0000 C.2     1  UNL1        0.0012
     17 C           3.7320    0.5208    0.0000 C.2     1  UNL1       -0.0119
     18 C           8.3321   -0.5208    0.0000 C.2     1  UNL1       -0.0119
     19 C           2.8680   -1.0241    0.0000 C.3     1  UNL1       -0.0181
     20 C           9.1962    1.0241    0.0000 C.3     1  UNL1       -0.0181
     21 C           2.0000   -0.5275    0.0000 C.3     1  UNL1       -0.0585
     22 C           2.8718   -2.0241    0.0000 C.3     1  UNL1       -0.0585
     23 C          10.0641    0.5275    0.0000 C.3     1  UNL1       -0.0585
     24 C           9.1923    2.0241    0.0000 C.3     1  UNL1       -0.0585
     25 H           5.6971   -1.0976    0.0000 H       1  UNL1        0.0400
     26 H           6.3670    1.0976    0.0000 H       1  UNL1        0.0400
     27 H           5.9120   -1.5000    0.0000 H       1  UNL1        0.0240
     28 H           6.5320   -2.1200    0.0000 H       1  UNL1        0.0240
     29 H           7.1520   -1.5000    0.0000 H       1  UNL1        0.0240
     30 H           6.1520    1.5000    0.0000 H       1  UNL1        0.0240
     31 H           5.5320    2.1200    0.0000 H       1  UNL1        0.0240
     32 H           4.9120    1.5000    0.0000 H       1  UNL1        0.0240
     33 H           8.8678   -0.8329    0.0000 H       1  UNL1        0.0656
     34 H           3.1963    0.8329    0.0000 H       1  UNL1        0.0656
     35 H           2.8656   -0.4042    0.0000 H       1  UNL1        0.0345
     36 H           8.6580    1.3321    0.0000 H       1  UNL1        0.0345
     37 H           9.8123    2.0265    0.0000 H       1  UNL1        0.0235
     38 H           9.1899    2.6441    0.0000 H       1  UNL1        0.0235
     39 H           9.7562   -0.0106    0.0000 H       1  UNL1        0.0235
     40 H          10.6022    0.2196    0.0000 H       1  UNL1        0.0235
     41 H          10.3720    1.0656    0.0000 H       1  UNL1        0.0235
     42 H           2.2518   -2.0265    0.0000 H       1  UNL1        0.0235
     43 H           2.8742   -2.6441    0.0000 H       1  UNL1        0.0235
     44 H           3.4918   -2.0218    0.0000 H       1  UNL1        0.0235
     45 H           2.3079    0.0106    0.0000 H       1  UNL1        0.0235
     46 H           1.4619   -0.2196    0.0000 H       1  UNL1        0.0235
     47 H           1.6921   -1.0656    0.0000 H       1  UNL1        0.0235
     48 H           8.5723    2.0218    0.0000 H       1  UNL1        0.0235
@<TRIPOS>BOND
     1     1    11    2
     2     2    12    2
     3     3    13    2
     4     4    14    2
     5     5     7    1
     6     5     8    1
     7     5     9    1
     8     5    11    1
     9     6     7    1
    10     6     8    1
    11     6    10    1
    12     6    12    1
    13     7    13    1
    14     7    25    1
    15     8    14    1
    16     8    26    1
    17     9    30    1
    18     9    31    1
    19     9    32    1
    20    10    27    1
    21    10    28    1
    22    10    29    1
    23    11    17    1
    24    12    18    1
    25    13    15    1
    26    14    16    1
    27    15    17    2
    28    15    19    1
    29    16    18    2
    30    16    20    1
    31    17    34    1
    32    18    33    1
    33    19    21    1
    34    19    22    1
    35    19    35    1
    36    20    23    1
    37    20    24    1
    38    20    36    1
    39    21    45    1
    40    21    46    1
    41    21    47    1
    42    22    42    1
    43    22    43    1
    44    22    44    1
    45    23    39    1
    46    23    40    1
    47    23    41    1
    48    24    37    1
    49    24    38    1
    50    24    48    1
