@<TRIPOS>MOLECULE
IMPHY008912
 180 189 0 0 0
SMALL
GASTEIGER

@<TRIPOS>ATOM
      1 O          25.5882    2.3985    0.0000 O.3     1  UNL1       -0.3850
      2 O          25.0242    2.7270    0.0000 O.3     1  UNL1       -0.3851
      3 O          24.3669   -1.0366    0.0000 O.3     1  UNL1       -0.4572
      4 O          19.8574    3.5332    0.0000 O.3     1  UNL1       -0.3477
      5 O          25.8200   -1.5417    0.0000 O.2     1  UNL1       -0.2974
      6 O          22.6349   -1.0299    0.0000 O.2     1  UNL1       -0.2450
      7 O          18.1254    3.5332    0.0000 O.3     1  UNL1       -0.3456
      8 O          18.1254    0.5332    0.0000 O.3     1  UNL1       -0.3770
      9 O          16.3933    1.5332    0.0000 O.3     1  UNL1       -0.3429
     10 O          15.5273    3.0332    0.0000 O.3     1  UNL1       -0.3456
     11 O          12.9292    1.5332    0.0000 O.3     1  UNL1       -0.3770
     12 O          12.9292    3.5332    0.0000 O.3     1  UNL1       -0.3429
     13 O          11.1972    3.5332    0.0000 O.3     1  UNL1       -0.3456
     14 O           9.4651    1.5332    0.0000 O.3     1  UNL1       -0.3429
     15 O          11.1972    0.5332    0.0000 O.3     1  UNL1       -0.3770
     16 O           8.5991    3.0332    0.0000 O.3     1  UNL1       -0.3456
     17 O           6.0010    3.5332    0.0000 O.3     1  UNL1       -0.3429
     18 O           6.0010    1.5332    0.0000 O.3     1  UNL1       -0.3770
     19 O           5.1350    2.0332    0.0000 O.3     1  UNL1       -0.3456
     20 O           2.5369    3.5332    0.0000 O.3     1  UNL1       -0.3770
     21 O           2.5369    1.5332    0.0000 O.3     1  UNL1       -0.3867
     22 C          25.2426    1.4601    0.0000 C.3     1  UNL1        0.1045
     23 C          25.2387    0.4601    0.0000 C.3     1  UNL1        0.0458
     24 C          24.3785    1.9634    0.0000 C.3     1  UNL1        0.1023
     25 C          23.5105    1.4668    0.0000 C.3     1  UNL1        0.0033
     26 C          24.3708   -0.0366    0.0000 C.3     1  UNL1        0.1125
     27 C          22.6025    1.9771    0.0000 C.3     1  UNL1       -0.0053
     28 C          26.1838    0.1517    0.0000 C.3     1  UNL1        0.0288
     29 C          23.5067    0.4668    0.0000 C.3     1  UNL1       -0.0087
     30 C          26.1900    1.7612    0.0000 C.3     1  UNL1       -0.0199
     31 C          26.7705    0.9542    0.0000 C.3     1  UNL1       -0.0401
     32 C          24.3986    3.0049    0.0000 C.3     1  UNL1       -0.0025
     33 C          25.2349   -0.5399    0.0000 C.3     1  UNL1       -0.0528
     34 C          22.5985    3.0187    0.0000 C.2     1  UNL1       -0.0647
     35 C          21.6735    1.4166    0.0000 C.3     1  UNL1       -0.0412
     36 C          23.5026    3.5361    0.0000 C.2     1  UNL1       -0.0813
     37 C          22.6064    0.9771    0.0000 C.3     1  UNL1       -0.0555
     38 C          21.6652    3.5721    0.0000 C.3     1  UNL1       -0.0047
     39 C          26.4908   -0.8000    0.0000 C.2     1  UNL1        0.1341
     40 C          20.7277    1.9482    0.0000 C.3     1  UNL1       -0.0254
     41 C          20.7235    3.0332    0.0000 C.3     1  UNL1        0.0654
     42 C          27.4685   -1.0100    0.0000 C.3     1  UNL1       -0.0058
     43 C          23.4990   -1.5332    0.0000 C.2     1  UNL1        0.3395
     44 C          18.9914    3.0332    0.0000 C.3     1  UNL1        0.1624
     45 C          23.4951   -2.5332    0.0000 C.ar    1  UNL1        0.0590
     46 C          18.9914    2.0332    0.0000 C.3     1  UNL1        0.0272
     47 C          18.1254    1.5332    0.0000 C.3     1  UNL1        0.0915
     48 C          22.6272   -3.0299    0.0000 C.ar    1  UNL1       -0.0478
     49 C          24.3592   -3.0365    0.0000 C.ar    1  UNL1       -0.0478
     50 C          17.2594    3.0332    0.0000 C.3     1  UNL1        0.0875
     51 C          17.2594    2.0332    0.0000 C.3     1  UNL1        0.1137
     52 C          22.6233   -4.0299    0.0000 C.ar    1  UNL1       -0.0610
     53 C          24.3554   -4.0365    0.0000 C.ar    1  UNL1       -0.0610
     54 C          16.3933    3.5332    0.0000 C.3     1  UNL1       -0.0361
     55 C          23.4874   -4.5332    0.0000 C.ar    1  UNL1       -0.0617
     56 C          15.5273    2.0332    0.0000 C.3     1  UNL1        0.1626
     57 C          18.9914    0.0332    0.0000 C.3     1  UNL1        0.0369
     58 C          14.6613    1.5332    0.0000 C.3     1  UNL1        0.0272
     59 C          13.7953    2.0332    0.0000 C.3     1  UNL1        0.0915
     60 C          14.6613    3.5332    0.0000 C.3     1  UNL1        0.0875
     61 C          13.7953    3.0332    0.0000 C.3     1  UNL1        0.1137
     62 C          14.6613    4.5332    0.0000 C.3     1  UNL1       -0.0361
     63 C          12.0632    3.0332    0.0000 C.3     1  UNL1        0.1626
     64 C          12.9292    0.5332    0.0000 C.3     1  UNL1        0.0369
     65 C          12.0632    2.0332    0.0000 C.3     1  UNL1        0.0272
     66 C          11.1972    1.5332    0.0000 C.3     1  UNL1        0.0915
     67 C          10.3312    2.0332    0.0000 C.3     1  UNL1        0.1137
     68 C          10.3312    3.0332    0.0000 C.3     1  UNL1        0.0875
     69 C           9.4651    3.5332    0.0000 C.3     1  UNL1       -0.0361
     70 C           8.5991    2.0332    0.0000 C.3     1  UNL1        0.1626
     71 C           7.7331    1.5332    0.0000 C.3     1  UNL1        0.0272
     72 C           6.8671    2.0332    0.0000 C.3     1  UNL1        0.0915
     73 C           6.8671    3.0332    0.0000 C.3     1  UNL1        0.1137
     74 C           7.7331    3.5332    0.0000 C.3     1  UNL1        0.0875
     75 C          10.3312    0.0332    0.0000 C.3     1  UNL1        0.0369
     76 C           5.1350    3.0332    0.0000 C.3     1  UNL1        0.1626
     77 C           7.7331    4.5332    0.0000 C.3     1  UNL1       -0.0361
     78 C           4.2690    3.5332    0.0000 C.3     1  UNL1        0.0272
     79 C           3.4030    3.0332    0.0000 C.3     1  UNL1        0.0911
     80 C           3.4030    2.0332    0.0000 C.3     1  UNL1        0.1073
     81 C           4.2690    1.5332    0.0000 C.3     1  UNL1        0.0871
     82 C           6.0010    0.5332    0.0000 C.3     1  UNL1        0.0369
     83 C           4.2690    0.5332    0.0000 C.3     1  UNL1       -0.0361
     84 C           2.5369    4.5332    0.0000 C.3     1  UNL1        0.0369
     85 H          24.2450    1.0389    0.0000 H       1  UNL1        0.0339
     86 H          23.8327   -0.3445    0.0000 H       1  UNL1        0.0741
     87 H          26.7959    0.0532    0.0000 H       1  UNL1        0.0385
     88 H          22.8965    0.5768    0.0000 H       1  UNL1        0.0305
     89 H          23.2924   -0.1150    0.0000 H       1  UNL1        0.0305
     90 H          26.7285    2.0683    0.0000 H       1  UNL1        0.0294
     91 H          25.9411    2.3290    0.0000 H       1  UNL1        0.0294
     92 H          27.2297    0.5377    0.0000 H       1  UNL1        0.0273
     93 H          27.2329    1.3671    0.0000 H       1  UNL1        0.0273
     94 H          25.0073    2.8870    0.0000 H       1  UNL1        0.0336
     95 H          24.6188    3.5844    0.0000 H       1  UNL1        0.0336
     96 H          24.6149   -0.5375    0.0000 H       1  UNL1        0.0237
     97 H          25.2325   -1.1599    0.0000 H       1  UNL1        0.0237
     98 H          25.8549   -0.5423    0.0000 H       1  UNL1        0.0237
     99 H          21.2817    0.9361    0.0000 H       1  UNL1        0.0274
    100 H          22.0799    0.9484    0.0000 H       1  UNL1        0.0274
    101 H          23.5073    4.1560    0.0000 H       1  UNL1        0.0573
    102 H          26.1992    2.5038    0.0000 H       1  UNL1        0.2103
    103 H          21.9864    0.9747    0.0000 H       1  UNL1        0.0238
    104 H          22.6087    0.3571    0.0000 H       1  UNL1        0.0238
    105 H          23.2263    0.9795    0.0000 H       1  UNL1        0.0238
    106 H          25.1342    3.3371    0.0000 H       1  UNL1        0.2103
    107 H          22.0680    4.0434    0.0000 H       1  UNL1        0.0335
    108 H          21.2697    4.0496    0.0000 H       1  UNL1        0.0335
    109 H          20.1164    2.0519    0.0000 H       1  UNL1        0.0290
    110 H          20.5208    1.3637    0.0000 H       1  UNL1        0.0290
    111 H          20.1871    2.7222    0.0000 H       1  UNL1        0.0600
    112 H          27.3383   -1.6162    0.0000 H       1  UNL1        0.0306
    113 H          28.0746   -1.1402    0.0000 H       1  UNL1        0.0306
    114 H          27.5987   -0.4038    0.0000 H       1  UNL1        0.0306
    115 H          18.9914    3.6532    0.0000 H       1  UNL1        0.0910
    116 H          19.2035    1.4506    0.0000 H       1  UNL1        0.0340
    117 H          19.6020    2.1408    0.0000 H       1  UNL1        0.0340
    118 H          18.6623    1.2232    0.0000 H       1  UNL1        0.0624
    119 H          22.0914   -2.7178    0.0000 H       1  UNL1        0.0626
    120 H          24.8973   -2.7286    0.0000 H       1  UNL1        0.0626
    121 H          17.2594    3.6532    0.0000 H       1  UNL1        0.0621
    122 H          16.7224    2.3432    0.0000 H       1  UNL1        0.0649
    123 H          22.0852   -4.3378    0.0000 H       1  UNL1        0.0618
    124 H          24.8911   -4.3486    0.0000 H       1  UNL1        0.0618
    125 H          16.7033    4.0701    0.0000 H       1  UNL1        0.0255
    126 H          15.8564    3.8432    0.0000 H       1  UNL1        0.0255
    127 H          16.0833    2.9963    0.0000 H       1  UNL1        0.0255
    128 H          23.4850   -5.1532    0.0000 H       1  UNL1        0.0618
    129 H          15.5273    1.4132    0.0000 H       1  UNL1        0.0910
    130 H          18.6814   -0.5037    0.0000 H       1  UNL1        0.0524
    131 H          19.5284   -0.2768    0.0000 H       1  UNL1        0.0524
    132 H          19.3014    0.5701    0.0000 H       1  UNL1        0.0524
    133 H          14.2628    1.0582    0.0000 H       1  UNL1        0.0340
    134 H          15.0598    1.0582    0.0000 H       1  UNL1        0.0340
    135 H          13.7953    1.4132    0.0000 H       1  UNL1        0.0624
    136 H          15.1982    3.8432    0.0000 H       1  UNL1        0.0621
    137 H          13.7953    3.6532    0.0000 H       1  UNL1        0.0649
    138 H          15.2813    4.5332    0.0000 H       1  UNL1        0.0255
    139 H          14.6613    5.1532    0.0000 H       1  UNL1        0.0255
    140 H          14.0413    4.5332    0.0000 H       1  UNL1        0.0255
    141 H          12.6002    2.7232    0.0000 H       1  UNL1        0.0910
    142 H          12.3092    0.5332    0.0000 H       1  UNL1        0.0524
    143 H          12.9292   -0.0868    0.0000 H       1  UNL1        0.0524
    144 H          13.5492    0.5332    0.0000 H       1  UNL1        0.0524
    145 H          12.2753    1.4506    0.0000 H       1  UNL1        0.0340
    146 H          12.6738    2.1408    0.0000 H       1  UNL1        0.0340
    147 H          10.6603    1.2232    0.0000 H       1  UNL1        0.0624
    148 H           9.7942    2.3432    0.0000 H       1  UNL1        0.0649
    149 H          10.3312    3.6532    0.0000 H       1  UNL1        0.0621
    150 H           9.7751    4.0701    0.0000 H       1  UNL1        0.0255
    151 H           8.9282    3.8432    0.0000 H       1  UNL1        0.0255
    152 H           9.1551    2.9963    0.0000 H       1  UNL1        0.0255
    153 H           8.5991    1.4132    0.0000 H       1  UNL1        0.0910
    154 H           7.3346    1.0582    0.0000 H       1  UNL1        0.0340
    155 H           8.1316    1.0582    0.0000 H       1  UNL1        0.0340
    156 H           6.3301    2.3432    0.0000 H       1  UNL1        0.0624
    157 H           6.8671    3.6532    0.0000 H       1  UNL1        0.0649
    158 H           8.2700    3.8432    0.0000 H       1  UNL1        0.0621
    159 H          10.0212    0.5701    0.0000 H       1  UNL1        0.0524
    160 H           9.7942   -0.2768    0.0000 H       1  UNL1        0.0524
    161 H          10.6412   -0.5037    0.0000 H       1  UNL1        0.0524
    162 H           5.1350    3.6532    0.0000 H       1  UNL1        0.0910
    163 H           8.3531    4.5332    0.0000 H       1  UNL1        0.0255
    164 H           7.7331    5.1532    0.0000 H       1  UNL1        0.0255
    165 H           7.1131    4.5332    0.0000 H       1  UNL1        0.0255
    166 H           4.6675    4.0081    0.0000 H       1  UNL1        0.0340
    167 H           3.8705    4.0081    0.0000 H       1  UNL1        0.0340
    168 H           3.4030    3.6532    0.0000 H       1  UNL1        0.0624
    169 H           3.4030    1.4132    0.0000 H       1  UNL1        0.0645
    170 H           4.8059    1.2232    0.0000 H       1  UNL1        0.0621
    171 H           5.3810    0.5332    0.0000 H       1  UNL1        0.0524
    172 H           6.0010   -0.0868    0.0000 H       1  UNL1        0.0524
    173 H           6.6210    0.5332    0.0000 H       1  UNL1        0.0524
    174 H           3.6490    0.5332    0.0000 H       1  UNL1        0.0255
    175 H           4.2690   -0.0868    0.0000 H       1  UNL1        0.0255
    176 H           4.8890    0.5332    0.0000 H       1  UNL1        0.0255
    177 H           2.0000    1.8432    0.0000 H       1  UNL1        0.2100
    178 H           3.1569    4.5332    0.0000 H       1  UNL1        0.0524
    179 H           2.5369    5.1532    0.0000 H       1  UNL1        0.0524
    180 H           1.9169    4.5332    0.0000 H       1  UNL1        0.0524
@<TRIPOS>BOND
     1    22     1    1
     2     1   102    1
     3    24     2    1
     4     2   106    1
     5    26     3    1
     6     3    43    1
     7    41     4    1
     8    44     4    1
     9     5    39    2
    10     6    43    2
    11     7    44    1
    12     7    50    1
    13    47     8    1
    14     8    57    1
    15    51     9    1
    16    56     9    1
    17    10    56    1
    18    10    60    1
    19    59    11    1
    20    11    64    1
    21    61    12    1
    22    63    12    1
    23    13    63    1
    24    13    68    1
    25    67    14    1
    26    70    14    1
    27    66    15    1
    28    15    75    1
    29    16    70    1
    30    16    74    1
    31    73    17    1
    32    76    17    1
    33    72    18    1
    34    18    82    1
    35    19    76    1
    36    19    81    1
    37    79    20    1
    38    20    84    1
    39    80    21    1
    40    21   177    1
    41    22    23    1
    42    22    24    1
    43    22    30    1
    44    23    26    1
    45    23    28    1
    46    23    33    1
    47    24    25    1
    48    24    32    1
    49    25    27    1
    50    25    29    1
    51    25    85    1
    52    26    29    1
    53    26    86    1
    54    27    34    1
    55    27    35    1
    56    27    37    1
    57    28    31    1
    58    28    39    1
    59    28    87    1
    60    29    88    1
    61    29    89    1
    62    30    31    1
    63    30    90    1
    64    30    91    1
    65    31    92    1
    66    31    93    1
    67    32    36    1
    68    32    94    1
    69    32    95    1
    70    33    96    1
    71    33    97    1
    72    33    98    1
    73    34    36    2
    74    34    38    1
    75    35    40    1
    76    35    99    1
    77    35   100    1
    78    36   101    1
    79    37   103    1
    80    37   104    1
    81    37   105    1
    82    38    41    1
    83    38   107    1
    84    38   108    1
    85    39    42    1
    86    40    41    1
    87    40   109    1
    88    40   110    1
    89    41   111    1
    90    42   112    1
    91    42   113    1
    92    42   114    1
    93    43    45    1
    94    44    46    1
    95    44   115    1
    96    45    48   ar
    97    45    49   ar
    98    46    47    1
    99    46   116    1
   100    46   117    1
   101    47    51    1
   102    47   118    1
   103    48    52   ar
   104    48   119    1
   105    49    53   ar
   106    49   120    1
   107    50    51    1
   108    50    54    1
   109    50   121    1
   110    51   122    1
   111    52    55   ar
   112    52   123    1
   113    53    55   ar
   114    53   124    1
   115    54   125    1
   116    54   126    1
   117    54   127    1
   118    55   128    1
   119    56    58    1
   120    56   129    1
   121    57   130    1
   122    57   131    1
   123    57   132    1
   124    58    59    1
   125    58   133    1
   126    58   134    1
   127    59    61    1
   128    59   135    1
   129    60    61    1
   130    60    62    1
   131    60   136    1
   132    61   137    1
   133    62   138    1
   134    62   139    1
   135    62   140    1
   136    63    65    1
   137    63   141    1
   138    64   142    1
   139    64   143    1
   140    64   144    1
   141    65    66    1
   142    65   145    1
   143    65   146    1
   144    66    67    1
   145    66   147    1
   146    67    68    1
   147    67   148    1
   148    68    69    1
   149    68   149    1
   150    69   150    1
   151    69   151    1
   152    69   152    1
   153    70    71    1
   154    70   153    1
   155    71    72    1
   156    71   154    1
   157    71   155    1
   158    72    73    1
   159    72   156    1
   160    73    74    1
   161    73   157    1
   162    74    77    1
   163    74   158    1
   164    75   159    1
   165    75   160    1
   166    75   161    1
   167    76    78    1
   168    76   162    1
   169    77   163    1
   170    77   164    1
   171    77   165    1
   172    78    79    1
   173    78   166    1
   174    78   167    1
   175    79    80    1
   176    79   168    1
   177    80    81    1
   178    80   169    1
   179    81    83    1
   180    81   170    1
   181    82   171    1
   182    82   172    1
   183    82   173    1
   184    83   174    1
   185    83   175    1
   186    83   176    1
   187    84   178    1
   188    84   179    1
   189    84   180    1
