@<TRIPOS>MOLECULE
IMPHY008367
 87 92 0 0 0
SMALL
GASTEIGER

@<TRIPOS>ATOM
      1 O          11.7191    2.3583    0.0000 O.3     1  UNL1       -0.3877
      2 O           6.3301    3.4314    0.0000 O.3     1  UNL1       -0.3480
      3 O          13.9117   -2.2128    0.0000 O.3     1  UNL1       -0.4571
      4 O           4.5981    3.4314    0.0000 O.3     1  UNL1       -0.3467
      5 O          12.6490   -3.4702    0.0000 O.2     1  UNL1       -0.2456
      6 O           4.5981    0.4314    0.0000 O.3     1  UNL1       -0.3780
      7 N           2.8660    1.4314    0.0000 N.3     1  UNL1       -0.3119
      8 C          11.7153    1.3583    0.0000 C.3     1  UNL1        0.0751
      9 C          10.8512    1.8616    0.0000 C.3     1  UNL1       -0.0083
     10 C           9.9832    1.3649    0.0000 C.3     1  UNL1       -0.0299
     11 C          11.7114    0.3583    0.0000 C.3     1  UNL1        0.0036
     12 C           9.0752    1.8753    0.0000 C.3     1  UNL1       -0.0259
     13 C           9.0712    2.9169    0.0000 C.3     1  UNL1       -0.0330
     14 C           9.9794    0.3650    0.0000 C.3     1  UNL1       -0.0488
     15 C          10.8435   -0.1384    0.0000 C.3     1  UNL1       -0.0442
     16 C          12.6564    0.0499    0.0000 C.3     1  UNL1       -0.0081
     17 C          10.8712    2.9030    0.0000 C.3     1  UNL1       -0.0470
     18 C          12.6626    1.6594    0.0000 C.3     1  UNL1       -0.0226
     19 C           9.9753    3.4342    0.0000 C.3     1  UNL1       -0.0493
     20 C          13.2432    0.8524    0.0000 C.3     1  UNL1       -0.0432
     21 C           8.1462    1.3148    0.0000 C.3     1  UNL1       -0.0448
     22 C           8.1379    3.4702    0.0000 C.3     1  UNL1       -0.0232
     23 C          11.7076   -0.6417    0.0000 C.3     1  UNL1       -0.0564
     24 C           9.0790    0.8753    0.0000 C.3     1  UNL1       -0.0590
     25 C           7.2003    1.8464    0.0000 C.3     1  UNL1       -0.0260
     26 C           7.1962    2.9314    0.0000 C.3     1  UNL1        0.0620
     27 C          12.9634   -0.9018    0.0000 C.2     1  UNL1       -0.0222
     28 C          13.9138   -1.2128    0.0000 C.3     1  UNL1        0.1147
     29 C          12.3739   -1.7096    0.0000 C.2     1  UNL1        0.0252
     30 C           5.4641    2.9314    0.0000 C.3     1  UNL1        0.1623
     31 C          12.9600   -2.5198    0.0000 C.2     1  UNL1        0.3323
     32 C           5.4641    1.9314    0.0000 C.3     1  UNL1        0.0263
     33 C           4.5981    1.4314    0.0000 C.3     1  UNL1        0.0806
     34 C           3.7320    2.9314    0.0000 C.3     1  UNL1        0.0765
     35 C           3.7320    1.9314    0.0000 C.3     1  UNL1        0.0602
     36 C           2.8660    3.4314    0.0000 C.3     1  UNL1       -0.0370
     37 C           2.0000    1.9314    0.0000 C.3     1  UNL1       -0.0154
     38 C           5.4641   -0.0686    0.0000 C.3     1  UNL1        0.0369
     39 H          11.5922    2.2781    0.0000 H       1  UNL1        0.0331
     40 H          10.7177    0.9371    0.0000 H       1  UNL1        0.0310
     41 H           9.0777    3.7669    0.0000 H       1  UNL1        0.0307
     42 H           9.3692    0.4750    0.0000 H       1  UNL1        0.0268
     43 H           9.7651   -0.2168    0.0000 H       1  UNL1        0.0268
     44 H          10.4431   -0.6118    0.0000 H       1  UNL1        0.0272
     45 H          11.2402   -0.6149    0.0000 H       1  UNL1        0.0272
     46 H          13.2686   -0.0487    0.0000 H       1  UNL1        0.0353
     47 H          11.4799    2.7852    0.0000 H       1  UNL1        0.0269
     48 H          11.0915    3.4826    0.0000 H       1  UNL1        0.0269
     49 H          13.2012    1.9665    0.0000 H       1  UNL1        0.0293
     50 H          12.4138    2.2272    0.0000 H       1  UNL1        0.0293
     51 H          10.3780    3.9056    0.0000 H       1  UNL1        0.0268
     52 H           9.5798    3.9118    0.0000 H       1  UNL1        0.0268
     53 H          13.7024    0.4359    0.0000 H       1  UNL1        0.0272
     54 H          13.7056    1.2653    0.0000 H       1  UNL1        0.0272
     55 H           7.7544    0.8343    0.0000 H       1  UNL1        0.0271
     56 H           8.5526    0.8466    0.0000 H       1  UNL1        0.0271
     57 H           8.5406    3.9416    0.0000 H       1  UNL1        0.0293
     58 H           7.7424    3.9477    0.0000 H       1  UNL1        0.0293
     59 H          11.0876   -0.6393    0.0000 H       1  UNL1        0.0236
     60 H          11.7052   -1.2617    0.0000 H       1  UNL1        0.0236
     61 H          12.3275   -0.6441    0.0000 H       1  UNL1        0.0236
     62 H           8.4590    0.8729    0.0000 H       1  UNL1        0.0235
     63 H           9.0814    0.2553    0.0000 H       1  UNL1        0.0235
     64 H           9.6990    0.8777    0.0000 H       1  UNL1        0.0235
     65 H           6.5891    1.9501    0.0000 H       1  UNL1        0.0290
     66 H           6.9935    1.2619    0.0000 H       1  UNL1        0.0290
     67 H           7.1974    3.5514    0.0000 H       1  UNL1        0.0597
     68 H          12.2572    2.6662    0.0000 H       1  UNL1        0.2102
     69 H          14.5303   -1.2790    0.0000 H       1  UNL1        0.0746
     70 H          14.0440   -0.6067    0.0000 H       1  UNL1        0.0746
     71 H          11.7539   -1.7083    0.0000 H       1  UNL1        0.0689
     72 H           5.4641    3.5514    0.0000 H       1  UNL1        0.0910
     73 H           5.6762    1.3488    0.0000 H       1  UNL1        0.0340
     74 H           6.0747    2.0390    0.0000 H       1  UNL1        0.0340
     75 H           5.1350    1.1214    0.0000 H       1  UNL1        0.0614
     76 H           3.7320    3.5514    0.0000 H       1  UNL1        0.0610
     77 H           3.7320    1.3114    0.0000 H       1  UNL1        0.0511
     78 H           3.1760    3.9683    0.0000 H       1  UNL1        0.0255
     79 H           2.3291    3.7414    0.0000 H       1  UNL1        0.0255
     80 H           2.5560    2.8944    0.0000 H       1  UNL1        0.0255
     81 H           2.8660    0.8114    0.0000 H       1  UNL1        0.1221
     82 H           2.3100    2.4683    0.0000 H       1  UNL1        0.0388
     83 H           1.4631    2.2414    0.0000 H       1  UNL1        0.0388
     84 H           1.6900    1.3944    0.0000 H       1  UNL1        0.0388
     85 H           5.1541   -0.6056    0.0000 H       1  UNL1        0.0524
     86 H           6.0010   -0.3786    0.0000 H       1  UNL1        0.0524
     87 H           5.7741    0.4683    0.0000 H       1  UNL1        0.0524
@<TRIPOS>BOND
     1     8     1    1
     2     1    68    1
     3    26     2    1
     4    30     2    1
     5     3    28    1
     6     3    31    1
     7     4    30    1
     8     4    34    1
     9     5    31    2
    10    33     6    1
    11     6    38    1
    12    35     7    1
    13     7    37    1
    14     7    81    1
    15     8     9    1
    16     8    11    1
    17     8    18    1
    18     9    10    1
    19     9    17    1
    20     9    39    1
    21    10    12    1
    22    10    14    1
    23    10    40    1
    24    11    15    1
    25    11    16    1
    26    11    23    1
    27    12    13    1
    28    12    21    1
    29    12    24    1
    30    13    19    1
    31    13    22    1
    32    13    41    1
    33    14    15    1
    34    14    42    1
    35    14    43    1
    36    15    44    1
    37    15    45    1
    38    16    20    1
    39    16    27    1
    40    16    46    1
    41    17    19    1
    42    17    47    1
    43    17    48    1
    44    18    20    1
    45    18    49    1
    46    18    50    1
    47    19    51    1
    48    19    52    1
    49    20    53    1
    50    20    54    1
    51    21    25    1
    52    21    55    1
    53    21    56    1
    54    22    26    1
    55    22    57    1
    56    22    58    1
    57    23    59    1
    58    23    60    1
    59    23    61    1
    60    24    62    1
    61    24    63    1
    62    24    64    1
    63    25    26    1
    64    25    65    1
    65    25    66    1
    66    26    67    1
    67    27    28    1
    68    27    29    2
    69    28    69    1
    70    28    70    1
    71    29    31    1
    72    29    71    1
    73    30    32    1
    74    30    72    1
    75    32    33    1
    76    32    73    1
    77    32    74    1
    78    33    35    1
    79    33    75    1
    80    34    35    1
    81    34    36    1
    82    34    76    1
    83    35    77    1
    84    36    78    1
    85    36    79    1
    86    36    80    1
    87    37    82    1
    88    37    83    1
    89    37    84    1
    90    38    85    1
    91    38    86    1
    92    38    87    1
