@<TRIPOS>MOLECULE
IMPHY017763
 25 25 0 0 0
SMALL
GASTEIGER

@<TRIPOS>ATOM
      1 N           7.1962   -1.0000    0.0000 N.ar    1  UNL1       -0.2569
      2 N           7.1962    1.0000    0.0000 N.ar    1  UNL1       -0.2600
      3 C           4.5981   -0.5000    0.0000 C.3     1  UNL1       -0.0476
      4 C           3.7320   -1.0000    0.0000 C.3     1  UNL1       -0.0530
      5 C           5.4641   -1.0000    0.0000 C.3     1  UNL1       -0.0089
      6 C           2.8660   -0.5000    0.0000 C.3     1  UNL1       -0.0559
      7 C           6.3301   -0.5000    0.0000 C.ar    1  UNL1        0.0593
      8 C           2.0000   -1.0000    0.0000 C.3     1  UNL1       -0.0653
      9 C           6.3301    0.5000    0.0000 C.ar    1  UNL1        0.0488
     10 C           8.0622   -0.5000    0.0000 C.ar    1  UNL1        0.0460
     11 C           8.0622    0.5000    0.0000 C.ar    1  UNL1        0.0457
     12 H           4.9966   -0.0251    0.0000 H       1  UNL1        0.0269
     13 H           4.1996   -0.0251    0.0000 H       1  UNL1        0.0269
     14 H           3.3335   -1.4750    0.0000 H       1  UNL1        0.0265
     15 H           4.1306   -1.4750    0.0000 H       1  UNL1        0.0265
     16 H           5.0656   -1.4750    0.0000 H       1  UNL1        0.0329
     17 H           5.8626   -1.4750    0.0000 H       1  UNL1        0.0329
     18 H           3.2646   -0.0251    0.0000 H       1  UNL1        0.0263
     19 H           2.4675   -0.0251    0.0000 H       1  UNL1        0.0263
     20 H           1.6900   -0.4631    0.0000 H       1  UNL1        0.0230
     21 H           1.4631   -1.3100    0.0000 H       1  UNL1        0.0230
     22 H           2.3100   -1.5369    0.0000 H       1  UNL1        0.0230
     23 H           5.7932    0.8100    0.0000 H       1  UNL1        0.0848
     24 H           8.5991   -0.8100    0.0000 H       1  UNL1        0.0845
     25 H           8.5991    0.8100    0.0000 H       1  UNL1        0.0845
@<TRIPOS>BOND
     1     1     7   ar
     2     1    10   ar
     3     2     9   ar
     4     2    11   ar
     5     3     4    1
     6     3     5    1
     7     3    12    1
     8     3    13    1
     9     4     6    1
    10     4    14    1
    11     4    15    1
    12     5     7    1
    13     5    16    1
    14     5    17    1
    15     6     8    1
    16     6    18    1
    17     6    19    1
    18     7     9   ar
    19     8    20    1
    20     8    21    1
    21     8    22    1
    22     9    23    1
    23    10    11   ar
    24    10    24    1
    25    11    25    1
