@<TRIPOS>MOLECULE
IMPHY000036
 68 72 0 0 0
SMALL
GASTEIGER

@<TRIPOS>ATOM
      1 O           9.9282   -0.5702    0.0000 O.3     1  UNL1       -0.3609
      2 O          12.5243   -0.0602    0.0000 O.3     1  UNL1       -0.3461
      3 O          13.5006   -1.5510    0.0000 O.3     1  UNL1       -0.3457
      4 O          11.6525    1.4365    0.0000 O.3     1  UNL1       -0.3865
      5 O           9.9166    2.4298    0.0000 O.3     1  UNL1       -0.3865
      6 O           8.1884    1.4231    0.0000 O.3     1  UNL1       -0.3862
      7 O          15.7168   -0.2152    0.0000 O.3     1  UNL1       -0.3812
      8 O          14.5084    0.8323    0.0000 O.3     1  UNL1       -0.3837
      9 O          15.8480   -2.3838    0.0000 O.3     1  UNL1       -0.3920
     10 O           7.2785    0.9369    0.0000 O.3     1  UNL1       -0.5054
     11 O           9.0602   -2.1218    0.0000 O.3     1  UNL1       -0.5062
     12 O           5.5301   -2.0977    0.0000 O.2     1  UNL1       -0.4542
     13 O           5.5301    0.9023    0.0000 O.2     1  UNL1       -0.2863
     14 O           2.0000   -0.0735    0.0000 O.3     1  UNL1       -0.4914
     15 O           2.0000   -2.1218    0.0000 O.3     1  UNL1       -0.5032
     16 C          10.7923   -0.0669    0.0000 C.3     1  UNL1        0.1112
     17 C          10.7884    0.9331    0.0000 C.3     1  UNL1        0.1118
     18 C           9.9205    1.4298    0.0000 C.3     1  UNL1        0.1121
     19 C           9.0564    0.9264    0.0000 C.3     1  UNL1        0.1139
     20 C           9.0602   -0.0735    0.0000 C.3     1  UNL1        0.1193
     21 C          14.9762   -0.8872    0.0000 C.3     1  UNL1        0.1425
     22 C          14.3042   -0.1466    0.0000 C.3     1  UNL1        0.1387
     23 C          13.3923   -0.5569    0.0000 C.3     1  UNL1        0.1880
     24 C          11.6602   -0.5635    0.0000 C.3     1  UNL1        0.0795
     25 C          14.4796   -1.7551    0.0000 C.3     1  UNL1        0.0843
     26 C           8.1962   -0.5769    0.0000 C.ar    1  UNL1        0.0673
     27 C          15.8442   -1.3838    0.0000 C.3     1  UNL1        0.0778
     28 C           7.2901   -0.0630    0.0000 C.ar    1  UNL1        0.1404
     29 C           8.1962   -1.6185    0.0000 C.ar    1  UNL1        0.1296
     30 C           6.3961   -0.5977    0.0000 C.ar    1  UNL1        0.1064
     31 C           7.2901   -2.1324    0.0000 C.ar    1  UNL1        0.0235
     32 C           6.3961   -1.5977    0.0000 C.ar    1  UNL1        0.1463
     33 C           5.5301   -0.0977    0.0000 C.ar    1  UNL1        0.2038
     34 C           4.6641   -0.5977    0.0000 C.ar    1  UNL1        0.0684
     35 C           4.6641   -1.5977    0.0000 C.ar    1  UNL1        0.1430
     36 C           3.7702   -0.0630    0.0000 C.ar    1  UNL1       -0.0019
     37 C           3.7702   -2.1324    0.0000 C.ar    1  UNL1        0.0265
     38 C           2.8641   -0.5769    0.0000 C.ar    1  UNL1        0.1622
     39 C           2.8641   -1.6185    0.0000 C.ar    1  UNL1        0.1620
     40 C           2.0038    0.9264    0.0000 C.3     1  UNL1        0.0790
     41 H          10.7947   -0.6869    0.0000 H       1  UNL1        0.0646
     42 H          10.7860    1.5531    0.0000 H       1  UNL1        0.0647
     43 H           9.3824    1.7377    0.0000 H       1  UNL1        0.0647
     44 H           8.5207    0.6144    0.0000 H       1  UNL1        0.0649
     45 H           9.0635   -0.9235    0.0000 H       1  UNL1        0.0676
     46 H          14.9025    0.0162    0.0000 H       1  UNL1        0.0675
     47 H          13.4223    0.0624    0.0000 H       1  UNL1        0.0937
     48 H          11.2635   -1.0400    0.0000 H       1  UNL1        0.0587
     49 H          12.0606   -1.0369    0.0000 H       1  UNL1        0.0587
     50 H          14.2903   -2.3455    0.0000 H       1  UNL1        0.0591
     51 H          15.0469   -2.0051    0.0000 H       1  UNL1        0.0591
     52 H          16.4552   -1.4891    0.0000 H       1  UNL1        0.0587
     53 H          16.0540   -0.8004    0.0000 H       1  UNL1        0.0587
     54 H          11.6501    2.0564    0.0000 H       1  UNL1        0.2100
     55 H          10.4524    2.7418    0.0000 H       1  UNL1        0.2100
     56 H           8.1861    2.0431    0.0000 H       1  UNL1        0.2100
     57 H          16.3072   -0.4045    0.0000 H       1  UNL1        0.2105
     58 H          15.0973    1.0262    0.0000 H       1  UNL1        0.2101
     59 H           7.2829   -2.7523    0.0000 H       1  UNL1        0.0691
     60 H          16.3862   -2.6917    0.0000 H       1  UNL1        0.2095
     61 H           6.7380    1.2407    0.0000 H       1  UNL1        0.2922
     62 H           9.0579   -2.7418    0.0000 H       1  UNL1        0.2922
     63 H           3.7773    0.5569    0.0000 H       1  UNL1        0.0663
     64 H           3.7773   -2.7523    0.0000 H       1  UNL1        0.0692
     65 H           2.0024   -2.7418    0.0000 H       1  UNL1        0.2923
     66 H           2.6238    0.9241    0.0000 H       1  UNL1        0.0660
     67 H           2.0062    1.5464    0.0000 H       1  UNL1        0.0660
     68 H           1.3839    0.9288    0.0000 H       1  UNL1        0.0660
@<TRIPOS>BOND
     1     1    16    1
     2     1    20    1
     3    23     2    1
     4     2    24    1
     5     3    23    1
     6     3    25    1
     7    17     4    1
     8     4    54    1
     9    18     5    1
    10     5    55    1
    11    19     6    1
    12     6    56    1
    13    21     7    1
    14     7    57    1
    15    22     8    1
    16     8    58    1
    17     9    27    1
    18     9    60    1
    19    10    28    1
    20    10    61    1
    21    11    29    1
    22    11    62    1
    23    12    32   ar
    24    12    35   ar
    25    13    33    2
    26    14    38    1
    27    14    40    1
    28    15    39    1
    29    15    65    1
    30    16    17    1
    31    16    24    1
    32    16    41    1
    33    17    18    1
    34    17    42    1
    35    18    19    1
    36    18    43    1
    37    19    20    1
    38    19    44    1
    39    20    26    1
    40    20    45    1
    41    21    22    1
    42    21    25    1
    43    21    27    1
    44    22    23    1
    45    22    46    1
    46    23    47    1
    47    24    48    1
    48    24    49    1
    49    25    50    1
    50    25    51    1
    51    26    28   ar
    52    26    29   ar
    53    27    52    1
    54    27    53    1
    55    28    30   ar
    56    29    31   ar
    57    30    32   ar
    58    30    33   ar
    59    31    32   ar
    60    31    59    1
    61    33    34   ar
    62    34    35   ar
    63    34    36   ar
    64    35    37   ar
    65    36    38   ar
    66    36    63    1
    67    37    39   ar
    68    37    64    1
    69    38    39   ar
    70    40    66    1
    71    40    67    1
    72    40    68    1
