@<TRIPOS>MOLECULE
IMPHY017569
 16 16 0 0 0
SMALL
GASTEIGER

@<TRIPOS>ATOM
      1 O           2.8090   -0.2652    0.0000 O.2     1  UNL1       -0.4655
      2 O           4.7770   -0.9646    0.0000 O.3     1  UNL1       -0.3753
      3 C           3.6180    0.3226    0.0000 C.ar    1  UNL1        0.1303
      4 C           4.5691    0.0135    0.0000 C.3     1  UNL1        0.1050
      5 C           3.3090    1.2736    0.0000 C.ar    1  UNL1       -0.0184
      6 C           2.3090    1.2736    0.0000 C.ar    1  UNL1       -0.0236
      7 C           2.0000    0.3226    0.0000 C.ar    1  UNL1        0.0922
      8 C           5.7281   -1.2736    0.0000 C.3     1  UNL1        0.0370
      9 H           5.1887    0.0352    0.0000 H       1  UNL1        0.0641
     10 H           4.6554    0.6275    0.0000 H       1  UNL1        0.0641
     11 H           3.6734    1.7752    0.0000 H       1  UNL1        0.0653
     12 H           1.9446    1.7752    0.0000 H       1  UNL1        0.0649
     13 H           1.4103    0.1310    0.0000 H       1  UNL1        0.1029
     14 H           5.5365   -1.8633    0.0000 H       1  UNL1        0.0524
     15 H           6.3177   -1.4652    0.0000 H       1  UNL1        0.0524
     16 H           5.9196   -0.6840    0.0000 H       1  UNL1        0.0524
@<TRIPOS>BOND
     1     1     3   ar
     2     1     7   ar
     3     2     4    1
     4     2     8    1
     5     3     4    1
     6     3     5   ar
     7     4     9    1
     8     4    10    1
     9     5     6   ar
    10     5    11    1
    11     6     7   ar
    12     6    12    1
    13     7    13    1
    14     8    14    1
    15     8    15    1
    16     8    16    1
