@<TRIPOS>MOLECULE
IMPHY004246
 23 23 0 0 0
SMALL
GASTEIGER

@<TRIPOS>ATOM
      1 O           4.5981    1.0000    0.0000 O.3     1  UNL1       -0.3317
      2 O           4.5981   -2.0000    0.0000 O.3     1  UNL1       -0.3864
      3 O           2.8660   -1.0000    0.0000 O.3     1  UNL1       -0.3860
      4 O           6.3301   -1.0000    0.0000 O.3     1  UNL1       -0.3841
      5 O           6.3301    1.0000    0.0000 O.3     1  UNL1       -0.3649
      6 O           2.8660    2.0000    0.0000 O.3     1  UNL1       -0.4788
      7 O           2.0000    0.5000    0.0000 O.2     1  UNL1       -0.2480
      8 C           4.5981   -1.0000    0.0000 C.3     1  UNL1        0.1145
      9 C           3.7320   -0.5000    0.0000 C.3     1  UNL1        0.1201
     10 C           5.4641   -0.5000    0.0000 C.3     1  UNL1        0.1340
     11 C           3.7320    0.5000    0.0000 C.3     1  UNL1        0.1859
     12 C           5.4641    0.5000    0.0000 C.3     1  UNL1        0.1860
     13 C           2.8660    1.0000    0.0000 C.2     1  UNL1        0.3367
     14 H           4.0611   -1.3100    0.0000 H       1  UNL1        0.0648
     15 H           3.1951   -0.1900    0.0000 H       1  UNL1        0.0652
     16 H           5.4641   -1.1200    0.0000 H       1  UNL1        0.0671
     17 H           3.7320    1.1200    0.0000 H       1  UNL1        0.0741
     18 H           5.4641    1.1200    0.0000 H       1  UNL1        0.0936
     19 H           5.1350   -2.3100    0.0000 H       1  UNL1        0.2100
     20 H           2.8660   -1.6200    0.0000 H       1  UNL1        0.2100
     21 H           6.8671   -0.6900    0.0000 H       1  UNL1        0.2101
     22 H           6.3301    1.6200    0.0000 H       1  UNL1        0.2126
     23 H           2.3291    2.3100    0.0000 H       1  UNL1        0.2951
@<TRIPOS>BOND
     1     1    11    1
     2     1    12    1
     3     8     2    1
     4     2    19    1
     5     9     3    1
     6     3    20    1
     7    10     4    1
     8     4    21    1
     9    12     5    1
    10     5    22    1
    11     6    13    1
    12     6    23    1
    13     7    13    2
    14     8     9    1
    15     8    10    1
    16     8    14    1
    17     9    11    1
    18     9    15    1
    19    10    12    1
    20    10    16    1
    21    11    13    1
    22    11    17    1
    23    12    18    1
