@<TRIPOS>MOLECULE
IMPHY003075
 24 26 0 0 0
SMALL
GASTEIGER

@<TRIPOS>ATOM
      1 O           4.6660   -0.8988    0.0000 O.2     1  UNL1       -0.4545
      2 O           7.9808   -1.2352    0.0000 O.2     1  UNL1       -0.4703
      3 O           4.6660    2.1012    0.0000 O.2     1  UNL1       -0.2870
      4 C           3.8000    0.6012    0.0000 C.ar    1  UNL1        0.0640
      5 C           3.8000   -0.3988    0.0000 C.ar    1  UNL1        0.1392
      6 C           5.5321   -0.3988    0.0000 C.ar    1  UNL1        0.1422
      7 C           6.3981   -0.8988    0.0000 C.ar    1  UNL1        0.0550
      8 C           4.6660    1.1012    0.0000 C.ar    1  UNL1        0.1931
      9 C           5.5321    0.6012    0.0000 C.ar    1  UNL1        0.0288
     10 C           2.9061    1.1359    0.0000 C.ar    1  UNL1       -0.0474
     11 C           2.9061   -0.9334    0.0000 C.ar    1  UNL1       -0.0186
     12 C           6.5026   -1.8933    0.0000 C.ar    1  UNL1       -0.0132
     13 C           2.0000    0.6220    0.0000 C.ar    1  UNL1       -0.0609
     14 C           2.0000   -0.4196    0.0000 C.ar    1  UNL1       -0.0582
     15 C           7.3116   -0.4920    0.0000 C.ar    1  UNL1        0.1023
     16 C           7.4808   -2.1012    0.0000 C.ar    1  UNL1        0.0924
     17 H           6.0690    0.9112    0.0000 H       1  UNL1        0.0693
     18 H           2.9132    1.7558    0.0000 H       1  UNL1        0.0626
     19 H           2.9132   -1.5534    0.0000 H       1  UNL1        0.0654
     20 H           6.0419   -2.3082    0.0000 H       1  UNL1        0.0656
     21 H           1.4643    0.9341    0.0000 H       1  UNL1        0.0618
     22 H           1.4643   -0.7317    0.0000 H       1  UNL1        0.0619
     23 H           7.4405    0.1144    0.0000 H       1  UNL1        0.1036
     24 H           7.7329   -2.6676    0.0000 H       1  UNL1        0.1029
@<TRIPOS>BOND
     1     1     5   ar
     2     1     6   ar
     3     2    15   ar
     4     2    16   ar
     5     3     8    2
     6     4     5   ar
     7     4     8   ar
     8     4    10   ar
     9     5    11   ar
    10     6     7    1
    11     6     9   ar
    12     7    12   ar
    13     7    15   ar
    14     8     9   ar
    15     9    17    1
    16    10    13   ar
    17    10    18    1
    18    11    14   ar
    19    11    19    1
    20    12    16   ar
    21    12    20    1
    22    13    14   ar
    23    13    21    1
    24    14    22    1
    25    15    23    1
    26    16    24    1
