@<TRIPOS>MOLECULE
IMPHY013090
 83 87 0 0 0
SMALL
GASTEIGER

@<TRIPOS>ATOM
      1 O           2.4522    2.1702    0.0000 O.3     1  UNL1       -0.4611
      2 O           9.0151   -3.2590    0.0000 O.3     1  UNL1       -0.3945
      3 O           2.5421    3.8789    0.0000 O.2     1  UNL1       -0.2508
      4 C           6.3534   -0.7172    0.0000 C.3     1  UNL1       -0.0231
      5 C           7.2195   -0.2172    0.0000 C.3     1  UNL1       -0.0230
      6 C           5.4874   -0.2172    0.0000 C.3     1  UNL1       -0.0294
      7 C           5.4874    0.7828    0.0000 C.3     1  UNL1       -0.0253
      8 C           8.1295   -0.7241    0.0000 C.3     1  UNL1       -0.0269
      9 C           8.1375   -1.7657    0.0000 C.3     1  UNL1       -0.0027
     10 C           7.2195    0.7828    0.0000 C.3     1  UNL1       -0.0463
     11 C           4.5935    1.3174    0.0000 C.3     1  UNL1       -0.0261
     12 C           6.3374   -1.7587    0.0000 C.3     1  UNL1       -0.0463
     13 C           6.3534    1.2828    0.0000 C.3     1  UNL1       -0.0466
     14 C           7.2354   -2.2865    0.0000 C.3     1  UNL1       -0.0445
     15 C           4.5935   -0.7519    0.0000 C.3     1  UNL1       -0.0486
     16 C           3.6874    0.8036    0.0000 C.3     1  UNL1        0.0081
     17 C           9.0563   -0.1600    0.0000 C.3     1  UNL1       -0.0439
     18 C           3.6874   -0.2380    0.0000 C.3     1  UNL1       -0.0437
     19 C           5.4874   -1.2172    0.0000 C.3     1  UNL1       -0.0588
     20 C           8.0855    0.2828    0.0000 C.3     1  UNL1       -0.0588
     21 C           9.0729   -2.3154    0.0000 C.3     1  UNL1       -0.0445
     22 C          10.0042   -0.6879    0.0000 C.3     1  UNL1       -0.0346
     23 C           5.4874    1.7828    0.0000 C.3     1  UNL1       -0.0590
     24 C          10.0126   -1.7729    0.0000 C.3     1  UNL1       -0.0473
     25 C           4.7467    2.3275    0.0000 C.3     1  UNL1       -0.0390
     26 C           8.1452   -2.7656    0.0000 C.3     1  UNL1        0.0501
     27 C           2.7419    1.1905    0.0000 C.3     1  UNL1        0.1059
     28 C           2.8176    0.3103    0.0000 C.3     1  UNL1       -0.0559
     29 C          11.0041   -0.6764    0.0000 C.3     1  UNL1       -0.0598
     30 C          10.4941    0.1838    0.0000 C.3     1  UNL1       -0.0598
     31 C           4.0546    3.0789    0.0000 C.3     1  UNL1        0.0452
     32 C           2.0000    0.5200    0.0000 C.3     1  UNL1       -0.0272
     33 C           3.0354    3.0091    0.0000 C.2     1  UNL1        0.3074
     34 H           6.2235    0.2078    0.0000 H       1  UNL1        0.0312
     35 H           8.8721   -1.1377    0.0000 H       1  UNL1        0.0312
     36 H           7.8300    0.6751    0.0000 H       1  UNL1        0.0271
     37 H           7.4315    1.3654    0.0000 H       1  UNL1        0.0271
     38 H           5.3623    1.6799    0.0000 H       1  UNL1        0.0313
     39 H           5.7282   -1.6432    0.0000 H       1  UNL1        0.0271
     40 H           6.1194   -2.3391    0.0000 H       1  UNL1        0.0271
     41 H           6.7520    1.7577    0.0000 H       1  UNL1        0.0271
     42 H           5.9549    1.7577    0.0000 H       1  UNL1        0.0271
     43 H           6.8345   -2.7594    0.0000 H       1  UNL1        0.0272
     44 H           7.6327   -2.7625    0.0000 H       1  UNL1        0.0272
     45 H           4.1998   -1.2309    0.0000 H       1  UNL1        0.0268
     46 H           4.9981   -1.2217    0.0000 H       1  UNL1        0.0268
     47 H           9.4462    0.3220    0.0000 H       1  UNL1        0.0273
     48 H           8.6481    0.3067    0.0000 H       1  UNL1        0.0273
     49 H           3.0766   -0.1320    0.0000 H       1  UNL1        0.0272
     50 H           3.4784   -0.8217    0.0000 H       1  UNL1        0.0272
     51 H           5.1774   -0.6803    0.0000 H       1  UNL1        0.0235
     52 H           4.9505   -1.5272    0.0000 H       1  UNL1        0.0235
     53 H           5.7974   -1.7542    0.0000 H       1  UNL1        0.0235
     54 H           8.3955   -0.2542    0.0000 H       1  UNL1        0.0235
     55 H           8.6224    0.5928    0.0000 H       1  UNL1        0.0235
     56 H           7.7755    0.8197    0.0000 H       1  UNL1        0.0235
     57 H           8.6720   -2.7883    0.0000 H       1  UNL1        0.0272
     58 H           9.4702   -2.7914    0.0000 H       1  UNL1        0.0272
     59 H           6.1074    1.7828    0.0000 H       1  UNL1        0.0235
     60 H           5.4874    2.4028    0.0000 H       1  UNL1        0.0235
     61 H           4.8674    1.7828    0.0000 H       1  UNL1        0.0235
     62 H          10.2261   -2.3550    0.0000 H       1  UNL1        0.0271
     63 H          10.6226   -1.6621    0.0000 H       1  UNL1        0.0271
     64 H           5.3234    2.0999    0.0000 H       1  UNL1        0.0273
     65 H           5.0974    2.8388    0.0000 H       1  UNL1        0.0273
     66 H           7.5338   -2.6627    0.0000 H       1  UNL1        0.0563
     67 H           7.9376   -3.3499    0.0000 H       1  UNL1        0.0563
     68 H           2.1451    1.3584    0.0000 H       1  UNL1        0.0736
     69 H           2.5117    0.8496    0.0000 H       1  UNL1        0.0236
     70 H           2.2782    0.0044    0.0000 H       1  UNL1        0.0236
     71 H           3.1234   -0.2290    0.0000 H       1  UNL1        0.0236
     72 H          11.0113   -1.2963    0.0000 H       1  UNL1        0.0235
     73 H          11.6241   -0.6692    0.0000 H       1  UNL1        0.0235
     74 H          10.9970   -0.0564    0.0000 H       1  UNL1        0.0235
     75 H          11.0346   -0.1200    0.0000 H       1  UNL1        0.0235
     76 H          10.7979    0.7243    0.0000 H       1  UNL1        0.0235
     77 H           9.9537    0.4876    0.0000 H       1  UNL1        0.0235
     78 H           4.5930    3.3865    0.0000 H       1  UNL1        0.0378
     79 H           3.8751    3.6724    0.0000 H       1  UNL1        0.0378
     80 H           1.5843    0.9800    0.0000 H       1  UNL1        0.0265
     81 H           1.5400    0.1043    0.0000 H       1  UNL1        0.0265
     82 H           2.4157    0.0600    0.0000 H       1  UNL1        0.0265
     83 H           9.0198   -3.8789    0.0000 H       1  UNL1        0.2094
@<TRIPOS>BOND
     1     1    27    1
     2     1    33    1
     3     2    26    1
     4     2    83    1
     5     3    33    2
     6     4     5    1
     7     4     6    1
     8     4    12    1
     9     4    19    1
    10     5     8    1
    11     5    10    1
    12     5    20    1
    13     6     7    1
    14     6    15    1
    15     6    34    1
    16     7    11    1
    17     7    13    1
    18     7    23    1
    19     8     9    1
    20     8    17    1
    21     8    35    1
    22     9    14    1
    23     9    21    1
    24     9    26    1
    25    10    13    1
    26    10    36    1
    27    10    37    1
    28    11    16    1
    29    11    25    1
    30    11    38    1
    31    12    14    1
    32    12    39    1
    33    12    40    1
    34    13    41    1
    35    13    42    1
    36    14    43    1
    37    14    44    1
    38    15    18    1
    39    15    45    1
    40    15    46    1
    41    16    18    1
    42    16    27    1
    43    16    28    1
    44    17    22    1
    45    17    47    1
    46    17    48    1
    47    18    49    1
    48    18    50    1
    49    19    51    1
    50    19    52    1
    51    19    53    1
    52    20    54    1
    53    20    55    1
    54    20    56    1
    55    21    24    1
    56    21    57    1
    57    21    58    1
    58    22    24    1
    59    22    29    1
    60    22    30    1
    61    23    59    1
    62    23    60    1
    63    23    61    1
    64    24    62    1
    65    24    63    1
    66    25    31    1
    67    25    64    1
    68    25    65    1
    69    26    66    1
    70    26    67    1
    71    27    32    1
    72    27    68    1
    73    28    69    1
    74    28    70    1
    75    28    71    1
    76    29    72    1
    77    29    73    1
    78    29    74    1
    79    30    75    1
    80    30    76    1
    81    30    77    1
    82    31    33    1
    83    31    78    1
    84    31    79    1
    85    32    80    1
    86    32    81    1
    87    32    82    1
