@<TRIPOS>MOLECULE
IMPHY014425
 123 129 0 0 0
SMALL
GASTEIGER

@<TRIPOS>ATOM
      1 O           6.3718   -5.7417    0.0000 O.3     1  UNL1       -0.3684
      2 O           7.5413   -4.1322    0.0000 O.3     1  UNL1       -0.4528
      3 O           8.2292   -3.2798    0.0000 O.3     1  UNL1       -0.4545
      4 O           3.7197   -3.0851    0.0000 O.3     1  UNL1       -0.4604
      5 O           8.7056   -1.9332    0.0000 O.3     1  UNL1       -0.3839
      6 O           4.7681   -0.3023    0.0000 O.3     1  UNL1       -0.4493
      7 O           4.0925   -1.9332    0.0000 O.2     1  UNL1       -0.2924
      8 O           8.8110    0.4787    0.0000 O.3     1  UNL1       -0.4542
      9 O           8.8273   -5.2924    0.0000 O.2     1  UNL1       -0.2511
     10 O           9.6481   -2.2863    0.0000 O.2     1  UNL1       -0.2449
     11 O           3.0384   -4.6775    0.0000 O.2     1  UNL1       -0.2512
     12 O           5.9928    0.9225    0.0000 O.2     1  UNL1       -0.2511
     13 O           7.5863    1.7035    0.0000 O.2     1  UNL1       -0.2465
     14 O          10.2252    1.8929    0.0000 O.3     1  UNL1       -0.4478
     15 O           9.7770    0.2199    0.0000 O.2     1  UNL1       -0.2511
     16 O           8.4829    5.0495    0.0000 O.2     1  UNL1       -0.2702
     17 N           8.0346    3.3765    0.0000 N.am    1  UNL1       -0.3004
     18 C           6.3991   -3.2398    0.0000 C.3     1  UNL1        0.0591
     19 C           6.5509   -4.2703    0.0000 C.3     1  UNL1        0.1697
     20 C           5.4752   -2.8571    0.0000 C.3     1  UNL1        0.0772
     21 C           5.7295   -4.9108    0.0000 C.3     1  UNL1        0.1045
     22 C           7.3229   -2.8571    0.0000 C.3     1  UNL1        0.1404
     23 C           7.7056   -1.9332    0.0000 C.3     1  UNL1        0.1157
     24 C           4.6391   -3.4784    0.0000 C.3     1  UNL1        0.1182
     25 C           4.7671   -4.5122    0.0000 C.3     1  UNL1        0.0155
     26 C           7.3229   -1.0094    0.0000 C.3     1  UNL1        0.0227
     27 C           7.2001   -5.0959    0.0000 C.3     1  UNL1        0.0909
     28 C           5.0925   -1.9332    0.0000 C.2     1  UNL1        0.1876
     29 C           8.3787   -1.1916    0.0000 C.3     1  UNL1        0.0215
     30 C           6.3991   -0.6267    0.0000 C.2     1  UNL1       -0.0114
     31 C           4.5513   -2.4744    0.0000 C.3     1  UNL1       -0.0487
     32 C           5.4752   -1.0094    0.0000 C.3     1  UNL1        0.1832
     33 C           8.1039   -0.2284    0.0000 C.3     1  UNL1        0.1271
     34 C           7.1408    0.0464    0.0000 C.2     1  UNL1       -0.0288
     35 C           7.6206    0.1014    0.0000 C.3     1  UNL1       -0.0532
     36 C           8.4338   -0.7117    0.0000 C.3     1  UNL1       -0.0532
     37 C           6.9133    1.0202    0.0000 C.3     1  UNL1       -0.0399
     38 C           7.8494   -5.0835    0.0000 C.2     1  UNL1        0.3046
     39 C           9.2254   -3.1927    0.0000 C.2     1  UNL1        0.3395
     40 C           2.9194   -3.6846    0.0000 C.2     1  UNL1        0.3042
     41 C           7.1795   -5.8260    0.0000 C.3     1  UNL1        0.0333
     42 C           5.0269    0.6637    0.0000 C.2     1  UNL1        0.3049
     43 C           8.5522    1.4446    0.0000 C.2     1  UNL1        0.3512
     44 C           9.7990   -4.0118    0.0000 C.ar    1  UNL1        0.0590
     45 C           2.0000   -3.2913    0.0000 C.3     1  UNL1        0.0332
     46 C           9.2593    2.1518    0.0000 C.3     1  UNL1        0.2209
     47 C           4.3198    1.3708    0.0000 C.3     1  UNL1        0.0333
     48 C          10.7952   -3.9245    0.0000 C.ar    1  UNL1       -0.0478
     49 C           9.3765   -4.9181    0.0000 C.ar    1  UNL1       -0.0478
     50 C           9.0005    3.1177    0.0000 C.3     1  UNL1        0.0962
     51 C          11.3688   -4.7436    0.0000 C.ar    1  UNL1       -0.0610
     52 C           9.9501   -5.7372    0.0000 C.ar    1  UNL1       -0.0610
     53 C          10.9463   -5.6500    0.0000 C.ar    1  UNL1       -0.0617
     54 C           9.7076    3.8248    0.0000 C.ar    1  UNL1       -0.0231
     55 C          10.4841    0.9270    0.0000 C.2     1  UNL1        0.3048
     56 C          10.6735    3.5660    0.0000 C.ar    1  UNL1       -0.0567
     57 C           9.4488    4.7907    0.0000 C.ar    1  UNL1       -0.0567
     58 C           7.7758    4.3424    0.0000 C.2     1  UNL1        0.2447
     59 C          11.4500    0.6682    0.0000 C.3     1  UNL1        0.0333
     60 C          11.3806    4.2731    0.0000 C.ar    1  UNL1       -0.0614
     61 C          10.1559    5.4978    0.0000 C.ar    1  UNL1       -0.0614
     62 C           6.8098    4.6012    0.0000 C.ar    1  UNL1        0.0367
     63 C          11.1218    5.2390    0.0000 C.ar    1  UNL1       -0.0617
     64 C           6.1027    3.8941    0.0000 C.ar    1  UNL1       -0.0496
     65 C           6.5510    5.5672    0.0000 C.ar    1  UNL1       -0.0496
     66 C           5.1368    4.1530    0.0000 C.ar    1  UNL1       -0.0610
     67 C           5.5851    5.8260    0.0000 C.ar    1  UNL1       -0.0610
     68 C           4.8780    5.1189    0.0000 C.ar    1  UNL1       -0.0617
     69 H           7.1844   -3.5651    0.0000 H       1  UNL1        0.0389
     70 H           5.2132   -5.5860    0.0000 H       1  UNL1        0.0638
     71 H           7.9008   -2.6324    0.0000 H       1  UNL1        0.0768
     72 H           4.1436   -3.8511    0.0000 H       1  UNL1        0.0744
     73 H           4.1479   -4.4819    0.0000 H       1  UNL1        0.0328
     74 H           4.6314   -5.1171    0.0000 H       1  UNL1        0.0328
     75 H           7.5820   -5.5844    0.0000 H       1  UNL1        0.0601
     76 H           7.6880   -4.7134    0.0000 H       1  UNL1        0.0601
     77 H           8.7532   -1.6857    0.0000 H       1  UNL1        0.0334
     78 H           8.9334   -0.9145    0.0000 H       1  UNL1        0.0334
     79 H           4.7886   -1.9016    0.0000 H       1  UNL1        0.0240
     80 H           3.9785   -2.2372    0.0000 H       1  UNL1        0.0240
     81 H           4.3140   -3.0472    0.0000 H       1  UNL1        0.0240
     82 H           5.5961   -0.4013    0.0000 H       1  UNL1        0.0864
     83 H           8.7041   -0.3840    0.0000 H       1  UNL1        0.0783
     84 H           8.2195   -0.0590    0.0000 H       1  UNL1        0.0239
     85 H           7.7810    0.7003    0.0000 H       1  UNL1        0.0239
     86 H           7.0217    0.2619    0.0000 H       1  UNL1        0.0239
     87 H           8.5942   -1.3106    0.0000 H       1  UNL1        0.0239
     88 H           9.0326   -0.5513    0.0000 H       1  UNL1        0.0239
     89 H           8.2733   -0.1129    0.0000 H       1  UNL1        0.0239
     90 H           9.0156   -1.3963    0.0000 H       1  UNL1        0.2104
     91 H           7.5170    1.1613    0.0000 H       1  UNL1        0.0276
     92 H           6.7722    1.6240    0.0000 H       1  UNL1        0.0276
     93 H           6.3095    0.8792    0.0000 H       1  UNL1        0.0276
     94 H           6.7192   -5.4107    0.0000 H       1  UNL1        0.0342
     95 H           6.7642   -6.2863    0.0000 H       1  UNL1        0.0342
     96 H           7.6398   -6.2413    0.0000 H       1  UNL1        0.0342
     97 H           2.2439   -2.7213    0.0000 H       1  UNL1        0.0342
     98 H           1.4300   -3.0474    0.0000 H       1  UNL1        0.0342
     99 H           1.7561   -3.8613    0.0000 H       1  UNL1        0.0342
    100 H           9.4198    1.5529    0.0000 H       1  UNL1        0.0876
    101 H           4.7582    1.8092    0.0000 H       1  UNL1        0.0342
    102 H           3.8814    1.8092    0.0000 H       1  UNL1        0.0342
    103 H           3.8814    0.9324    0.0000 H       1  UNL1        0.0342
    104 H          11.0572   -3.3626    0.0000 H       1  UNL1        0.0626
    105 H           8.7588   -4.9722    0.0000 H       1  UNL1        0.0626
    106 H           8.8400    3.7166    0.0000 H       1  UNL1        0.0591
    107 H          11.9865   -4.6896    0.0000 H       1  UNL1        0.0618
    108 H           9.6881   -6.2991    0.0000 H       1  UNL1        0.0618
    109 H          11.3019   -6.1578    0.0000 H       1  UNL1        0.0618
    110 H           7.5962    2.9381    0.0000 H       1  UNL1        0.1498
    111 H          10.8340    2.9671    0.0000 H       1  UNL1        0.0621
    112 H           8.8499    4.9512    0.0000 H       1  UNL1        0.0621
    113 H          11.2895    0.0693    0.0000 H       1  UNL1        0.0342
    114 H          12.0489    0.5077    0.0000 H       1  UNL1        0.0342
    115 H          11.6105    1.2671    0.0000 H       1  UNL1        0.0342
    116 H          11.9795    4.1126    0.0000 H       1  UNL1        0.0618
    117 H           9.9954    6.0967    0.0000 H       1  UNL1        0.0618
    118 H          11.5602    5.6774    0.0000 H       1  UNL1        0.0618
    119 H           6.2632    3.2953    0.0000 H       1  UNL1        0.0625
    120 H           6.9894    6.0056    0.0000 H       1  UNL1        0.0625
    121 H           4.6984    3.7145    0.0000 H       1  UNL1        0.0618
    122 H           5.4246    6.4249    0.0000 H       1  UNL1        0.0618
    123 H           4.2791    5.2793    0.0000 H       1  UNL1        0.0618
@<TRIPOS>BOND
     1     1    21    1
     2     1    27    1
     3    19     2    1
     4     2    38    1
     5    22     3    1
     6     3    39    1
     7    24     4    1
     8     4    40    1
     9    23     5    1
    10     5    90    1
    11    32     6    1
    12     6    42    1
    13     7    28    2
    14    33     8    1
    15     8    43    1
    16     9    38    2
    17    10    39    2
    18    11    40    2
    19    12    42    2
    20    13    43    2
    21    46    14    1
    22    14    55    1
    23    15    55    2
    24    16    58    2
    25    50    17    1
    26    17    58   am
    27    17   110    1
    28    18    19    1
    29    18    20    1
    30    18    22    1
    31    18    69    1
    32    19    21    1
    33    19    27    1
    34    20    24    1
    35    20    28    1
    36    20    31    1
    37    21    25    1
    38    21    70    1
    39    22    23    1
    40    22    71    1
    41    23    26    1
    42    23    29    1
    43    24    25    1
    44    24    72    1
    45    25    73    1
    46    25    74    1
    47    26    30    1
    48    26    35    1
    49    26    36    1
    50    27    75    1
    51    27    76    1
    52    28    32    1
    53    29    33    1
    54    29    77    1
    55    29    78    1
    56    30    32    1
    57    30    34    2
    58    31    79    1
    59    31    80    1
    60    31    81    1
    61    32    82    1
    62    33    34    1
    63    33    83    1
    64    34    37    1
    65    35    84    1
    66    35    85    1
    67    35    86    1
    68    36    87    1
    69    36    88    1
    70    36    89    1
    71    37    91    1
    72    37    92    1
    73    37    93    1
    74    38    41    1
    75    39    44    1
    76    40    45    1
    77    41    94    1
    78    41    95    1
    79    41    96    1
    80    42    47    1
    81    43    46    1
    82    44    48   ar
    83    44    49   ar
    84    45    97    1
    85    45    98    1
    86    45    99    1
    87    46    50    1
    88    46   100    1
    89    47   101    1
    90    47   102    1
    91    47   103    1
    92    48    51   ar
    93    48   104    1
    94    49    52   ar
    95    49   105    1
    96    50    54    1
    97    50   106    1
    98    51    53   ar
    99    51   107    1
   100    52    53   ar
   101    52   108    1
   102    53   109    1
   103    54    56   ar
   104    54    57   ar
   105    55    59    1
   106    56    60   ar
   107    56   111    1
   108    57    61   ar
   109    57   112    1
   110    58    62    1
   111    59   113    1
   112    59   114    1
   113    59   115    1
   114    60    63   ar
   115    60   116    1
   116    61    63   ar
   117    61   117    1
   118    62    64   ar
   119    62    65   ar
   120    63   118    1
   121    64    66   ar
   122    64   119    1
   123    65    67   ar
   124    65   120    1
   125    66    68   ar
   126    66   121    1
   127    67    68   ar
   128    67   122    1
   129    68   123    1
