@<TRIPOS>MOLECULE
IMPHY014012
 56 60 0 0 0
SMALL
GASTEIGER

@<TRIPOS>ATOM
      1 O           3.4993   -0.4426    0.0000 O.3     1  UNL1       -0.4674
      2 O           5.0080   -0.1765    0.0000 O.2     1  UNL1       -0.2501
      3 O           6.4261    0.4844    0.0000 O.2     1  UNL1       -0.2897
      4 O           5.6902   -3.4398    0.0000 O.3     1  UNL1       -0.4951
      5 N           4.6660    2.7632    0.0000 N.3     1  UNL1       -0.2976
      6 N           3.8570    0.1754    0.0000 N.pl3   1  UNL1       -0.3300
      7 C           3.8000    1.2632    0.0000 C.3     1  UNL1        0.1118
      8 C           3.8000    2.2632    0.0000 C.3     1  UNL1        0.0314
      9 C           4.6660    0.7632    0.0000 C.3     1  UNL1        0.1136
     10 C           2.0000    1.2423    0.0000 C.3     1  UNL1       -0.0268
     11 C           2.9061    0.7285    0.0000 C.3     1  UNL1       -0.0293
     12 C           2.9061    2.7978    0.0000 C.3     1  UNL1       -0.0242
     13 C           2.0000    2.2840    0.0000 C.3     1  UNL1       -0.0447
     14 C           3.7720    1.2331    0.0000 C.3     1  UNL1        0.0021
     15 C           5.5321    1.2632    0.0000 C.3     1  UNL1       -0.0105
     16 C           5.5321    2.2632    0.0000 C.3     1  UNL1        0.0016
     17 C           4.1421    0.3235    0.0000 C.2     1  UNL1        0.3171
     18 C           2.9176    3.7978    0.0000 C.3     1  UNL1       -0.0516
     19 C           5.4751    0.1754    0.0000 C.2     1  UNL1        0.1893
     20 C           5.1660   -0.7757    0.0000 C.ar    1  UNL1        0.0439
     21 C           4.1660   -0.7757    0.0000 C.ar    1  UNL1        0.0388
     22 C           2.0574    4.3077    0.0000 C.3     1  UNL1       -0.0650
     23 C           5.7007   -1.6696    0.0000 C.ar    1  UNL1       -0.0076
     24 C           3.6314   -1.6696    0.0000 C.ar    1  UNL1       -0.0367
     25 C           2.5145   -0.2689    0.0000 C.3     1  UNL1        0.0817
     26 C           5.1868   -2.5757    0.0000 C.ar    1  UNL1        0.1209
     27 C           4.1452   -2.5757    0.0000 C.ar    1  UNL1       -0.0182
     28 C           5.1935   -4.3077    0.0000 C.3     1  UNL1        0.0788
     29 H           3.8048    2.8831    0.0000 H       1  UNL1        0.0477
     30 H           1.4643    0.9303    0.0000 H       1  UNL1        0.0314
     31 H           2.5124    0.2495    0.0000 H       1  UNL1        0.0280
     32 H           3.3107    0.2587    0.0000 H       1  UNL1        0.0280
     33 H           2.3721    3.1130    0.0000 H       1  UNL1        0.0316
     34 H           1.7909    2.8677    0.0000 H       1  UNL1        0.0271
     35 H           1.3891    2.1779    0.0000 H       1  UNL1        0.0271
     36 H           3.6612    0.6231    0.0000 H       1  UNL1        0.0429
     37 H           4.3535    1.0180    0.0000 H       1  UNL1        0.0429
     38 H           5.7441    0.6805    0.0000 H       1  UNL1        0.0303
     39 H           6.1426    1.3708    0.0000 H       1  UNL1        0.0303
     40 H           6.1426    2.1555    0.0000 H       1  UNL1        0.0427
     41 H           5.7441    2.8458    0.0000 H       1  UNL1        0.0427
     42 H           3.5269    3.6830    0.0000 H       1  UNL1        0.0266
     43 H           3.1364    4.3779    0.0000 H       1  UNL1        0.0266
     44 H           3.2374    0.1537    0.0000 H       1  UNL1        0.1471
     45 H           2.3736    4.8410    0.0000 H       1  UNL1        0.0230
     46 H           1.5241    4.6239    0.0000 H       1  UNL1        0.0230
     47 H           1.7413    3.7744    0.0000 H       1  UNL1        0.0230
     48 H           6.3206   -1.6625    0.0000 H       1  UNL1        0.0662
     49 H           3.0114   -1.6625    0.0000 H       1  UNL1        0.0637
     50 H           2.6222    0.3417    0.0000 H       1  UNL1        0.0661
     51 H           1.9040   -0.1612    0.0000 H       1  UNL1        0.0661
     52 H           2.4068   -0.8795    0.0000 H       1  UNL1        0.0661
     53 H           3.8332   -3.1114    0.0000 H       1  UNL1        0.0655
     54 H           4.6554   -3.9998    0.0000 H       1  UNL1        0.0660
     55 H           4.8856   -4.8459    0.0000 H       1  UNL1        0.0660
     56 H           5.7316   -4.6157    0.0000 H       1  UNL1        0.0660
@<TRIPOS>BOND
     1     1    17    1
     2     1    25    1
     3     2    17    2
     4     3    19    2
     5     4    26    1
     6     4    28    1
     7     5     8    1
     8     5    14    1
     9     5    16    1
    10     6     9    1
    11     6    21    1
    12     6    44    1
    13     7     8    1
    14     7     9    1
    15     7    11    1
    16     7    17    1
    17     8    12    1
    18     8    29    1
    19     9    15    1
    20     9    19    1
    21    10    11    1
    22    10    13    1
    23    10    14    1
    24    10    30    1
    25    11    31    1
    26    11    32    1
    27    12    13    1
    28    12    18    1
    29    12    33    1
    30    13    34    1
    31    13    35    1
    32    14    36    1
    33    14    37    1
    34    15    16    1
    35    15    38    1
    36    15    39    1
    37    16    40    1
    38    16    41    1
    39    18    22    1
    40    18    42    1
    41    18    43    1
    42    19    20    1
    43    20    21   ar
    44    20    23   ar
    45    21    24   ar
    46    22    45    1
    47    22    46    1
    48    22    47    1
    49    23    26   ar
    50    23    48    1
    51    24    27   ar
    52    24    49    1
    53    25    50    1
    54    25    51    1
    55    25    52    1
    56    26    27   ar
    57    27    53    1
    58    28    54    1
    59    28    55    1
    60    28    56    1
