@<TRIPOS>MOLECULE
IMPHY000570
 53 52 0 0 0
SMALL
GASTEIGER

@<TRIPOS>ATOM
      1 O          10.3312   -1.2500    0.0000 O.3     1  UNL1       -0.3892
      2 O          11.1972    1.2500    0.0000 O.3     1  UNL1       -0.3892
      3 O          17.2594   -0.2500    0.0000 O.3     1  UNL1       -0.3950
      4 O           2.5369    0.2500    0.0000 O.3     1  UNL1       -0.4806
      5 O           3.4030   -1.2500    0.0000 O.2     1  UNL1       -0.2510
      6 C          10.3312   -0.2500    0.0000 C.3     1  UNL1        0.0811
      7 C          11.1972    0.2500    0.0000 C.3     1  UNL1        0.0811
      8 C           9.4651    0.2500    0.0000 C.3     1  UNL1       -0.0244
      9 C          12.0632   -0.2500    0.0000 C.3     1  UNL1       -0.0244
     10 C           8.5991   -0.2500    0.0000 C.3     1  UNL1       -0.0506
     11 C          12.9292    0.2500    0.0000 C.3     1  UNL1       -0.0506
     12 C           7.7331    0.2500    0.0000 C.3     1  UNL1       -0.0530
     13 C          13.7953   -0.2500    0.0000 C.3     1  UNL1       -0.0529
     14 C           6.8671   -0.2500    0.0000 C.3     1  UNL1       -0.0530
     15 C           6.0010    0.2500    0.0000 C.3     1  UNL1       -0.0526
     16 C          14.6613    0.2500    0.0000 C.3     1  UNL1       -0.0510
     17 C           5.1350   -0.2500    0.0000 C.3     1  UNL1       -0.0430
     18 C          15.5273   -0.2500    0.0000 C.3     1  UNL1       -0.0297
     19 C           4.2690    0.2500    0.0000 C.3     1  UNL1        0.0448
     20 C          16.3933    0.2500    0.0000 C.3     1  UNL1        0.0442
     21 C           3.4030   -0.2500    0.0000 C.2     1  UNL1        0.3047
     22 H          10.8681   -0.5600    0.0000 H       1  UNL1        0.0619
     23 H          10.6603    0.5600    0.0000 H       1  UNL1        0.0619
     24 H           9.8637    0.7249    0.0000 H       1  UNL1        0.0291
     25 H           9.0666    0.7249    0.0000 H       1  UNL1        0.0291
     26 H          11.6647   -0.7249    0.0000 H       1  UNL1        0.0291
     27 H          12.4617   -0.7249    0.0000 H       1  UNL1        0.0291
     28 H           8.2006   -0.7249    0.0000 H       1  UNL1        0.0266
     29 H           8.9976   -0.7249    0.0000 H       1  UNL1        0.0266
     30 H          13.3278    0.7249    0.0000 H       1  UNL1        0.0266
     31 H          12.5307    0.7249    0.0000 H       1  UNL1        0.0266
     32 H           8.1316    0.7249    0.0000 H       1  UNL1        0.0265
     33 H           7.3346    0.7249    0.0000 H       1  UNL1        0.0265
     34 H          13.3967   -0.7249    0.0000 H       1  UNL1        0.0265
     35 H          14.1938   -0.7249    0.0000 H       1  UNL1        0.0265
     36 H           6.4685   -0.7249    0.0000 H       1  UNL1        0.0265
     37 H           7.2656   -0.7249    0.0000 H       1  UNL1        0.0265
     38 H           6.3996    0.7249    0.0000 H       1  UNL1        0.0265
     39 H           5.6025    0.7249    0.0000 H       1  UNL1        0.0265
     40 H          15.0598    0.7249    0.0000 H       1  UNL1        0.0266
     41 H          14.2628    0.7249    0.0000 H       1  UNL1        0.0266
     42 H           4.7365   -0.7249    0.0000 H       1  UNL1        0.0270
     43 H           5.5335   -0.7249    0.0000 H       1  UNL1        0.0270
     44 H          15.1288   -0.7249    0.0000 H       1  UNL1        0.0287
     45 H          15.9258   -0.7249    0.0000 H       1  UNL1        0.0287
     46 H           9.7942   -1.5600    0.0000 H       1  UNL1        0.2099
     47 H          11.7341    1.5600    0.0000 H       1  UNL1        0.2099
     48 H           4.6675    0.7249    0.0000 H       1  UNL1        0.0377
     49 H           3.8705    0.7249    0.0000 H       1  UNL1        0.0377
     50 H          16.7919    0.7249    0.0000 H       1  UNL1        0.0557
     51 H          15.9948    0.7249    0.0000 H       1  UNL1        0.0557
     52 H          17.7963    0.0600    0.0000 H       1  UNL1        0.2094
     53 H           2.0000   -0.0600    0.0000 H       1  UNL1        0.2951
@<TRIPOS>BOND
     1     1     6    1
     2     1    46    1
     3     2     7    1
     4     2    47    1
     5     3    20    1
     6     3    52    1
     7     4    21    1
     8     4    53    1
     9     5    21    2
    10     6     7    1
    11     6     8    1
    12     6    22    1
    13     7     9    1
    14     7    23    1
    15     8    10    1
    16     8    24    1
    17     8    25    1
    18     9    11    1
    19     9    26    1
    20     9    27    1
    21    10    12    1
    22    10    28    1
    23    10    29    1
    24    11    13    1
    25    11    30    1
    26    11    31    1
    27    12    14    1
    28    12    32    1
    29    12    33    1
    30    13    16    1
    31    13    34    1
    32    13    35    1
    33    14    15    1
    34    14    36    1
    35    14    37    1
    36    15    17    1
    37    15    38    1
    38    15    39    1
    39    16    18    1
    40    16    40    1
    41    16    41    1
    42    17    19    1
    43    17    42    1
    44    17    43    1
    45    18    20    1
    46    18    44    1
    47    18    45    1
    48    19    21    1
    49    19    48    1
    50    19    49    1
    51    20    50    1
    52    20    51    1
