@<TRIPOS>MOLECULE
IMPHY002725
 69 71 0 0 0
SMALL
GASTEIGER

@<TRIPOS>ATOM
      1 O          10.3312   -0.5000    0.0000 O.3     1  UNL1       -0.3401
      2 O           8.5991   -0.5000    0.0000 O.3     1  UNL1       -0.3405
      3 O          12.0632    2.5000    0.0000 O.3     1  UNL1       -0.3745
      4 O          12.0632    0.5000    0.0000 O.3     1  UNL1       -0.3865
      5 O           8.5991    0.5000    0.0000 O.3     1  UNL1       -0.3865
      6 O           8.5991    2.5000    0.0000 O.3     1  UNL1       -0.3865
      7 O          10.3312    3.5000    0.0000 O.3     1  UNL1       -0.3865
      8 O           6.0010   -1.0000    0.0000 O.3     1  UNL1       -0.3460
      9 O          10.3312   -2.5000    0.0000 O.3     1  UNL1       -0.3841
     10 O           4.2690   -1.0000    0.0000 O.3     1  UNL1       -0.3405
     11 O           8.5991   -3.5000    0.0000 O.3     1  UNL1       -0.3864
     12 O           6.8671   -2.5000    0.0000 O.3     1  UNL1       -0.3865
     13 O           6.0010    1.0000    0.0000 O.3     1  UNL1       -0.3841
     14 O           4.2690    2.0000    0.0000 O.3     1  UNL1       -0.3864
     15 O           2.5369    1.0000    0.0000 O.3     1  UNL1       -0.3865
     16 O           2.5369   -2.0000    0.0000 O.3     1  UNL1       -0.3924
     17 C          10.3312    0.5000    0.0000 C.3     1  UNL1        0.1183
     18 C          11.1972    1.0000    0.0000 C.3     1  UNL1        0.1124
     19 C           9.4651    1.0000    0.0000 C.3     1  UNL1        0.1122
     20 C          11.1972    2.0000    0.0000 C.3     1  UNL1        0.1149
     21 C           9.4651    2.0000    0.0000 C.3     1  UNL1        0.1118
     22 C          10.3312    2.5000    0.0000 C.3     1  UNL1        0.1121
     23 C           9.4651   -1.0000    0.0000 C.3     1  UNL1        0.1884
     24 C           9.4651   -2.0000    0.0000 C.3     1  UNL1        0.1341
     25 C           7.7331   -1.0000    0.0000 C.3     1  UNL1        0.1134
     26 C           8.5991   -2.5000    0.0000 C.3     1  UNL1        0.1141
     27 C           7.7331   -2.0000    0.0000 C.3     1  UNL1        0.1119
     28 C           6.8671   -0.5000    0.0000 C.3     1  UNL1        0.0796
     29 C           5.1350   -0.5000    0.0000 C.3     1  UNL1        0.1880
     30 C           5.1350    0.5000    0.0000 C.3     1  UNL1        0.1341
     31 C           4.2690    1.0000    0.0000 C.3     1  UNL1        0.1141
     32 C           3.4030    0.5000    0.0000 C.3     1  UNL1        0.1119
     33 C           3.4030   -0.5000    0.0000 C.3     1  UNL1        0.1130
     34 C          12.0632    3.5000    0.0000 C.3     1  UNL1        0.0370
     35 C           2.5369   -1.0000    0.0000 C.3     1  UNL1        0.0730
     36 H           9.7942    0.1900    0.0000 H       1  UNL1        0.0651
     37 H          11.7341    1.3100    0.0000 H       1  UNL1        0.0647
     38 H           8.9282    1.3100    0.0000 H       1  UNL1        0.0647
     39 H          11.1972    2.6200    0.0000 H       1  UNL1        0.0649
     40 H           9.4651    2.6200    0.0000 H       1  UNL1        0.0647
     41 H          10.8681    2.8100    0.0000 H       1  UNL1        0.0647
     42 H          10.0021   -1.3100    0.0000 H       1  UNL1        0.0938
     43 H           9.4651   -2.6200    0.0000 H       1  UNL1        0.0671
     44 H           7.7331   -0.3800    0.0000 H       1  UNL1        0.0647
     45 H           8.0622   -2.8100    0.0000 H       1  UNL1        0.0648
     46 H           7.1962   -1.6900    0.0000 H       1  UNL1        0.0647
     47 H           7.2656   -0.0251    0.0000 H       1  UNL1        0.0587
     48 H           6.4685   -0.0251    0.0000 H       1  UNL1        0.0587
     49 H           5.1350   -1.1200    0.0000 H       1  UNL1        0.0937
     50 H           5.1350    1.1200    0.0000 H       1  UNL1        0.0671
     51 H           3.7320    1.3100    0.0000 H       1  UNL1        0.0648
     52 H           2.8660    0.1900    0.0000 H       1  UNL1        0.0647
     53 H          12.6002    0.8100    0.0000 H       1  UNL1        0.2100
     54 H           8.0622    0.8100    0.0000 H       1  UNL1        0.2100
     55 H           3.4030   -1.1200    0.0000 H       1  UNL1        0.0647
     56 H           8.5991    3.1200    0.0000 H       1  UNL1        0.2100
     57 H           9.7942    3.8100    0.0000 H       1  UNL1        0.2100
     58 H          10.3312   -3.1200    0.0000 H       1  UNL1        0.2101
     59 H           8.0622   -3.8100    0.0000 H       1  UNL1        0.2100
     60 H           6.8671   -3.1200    0.0000 H       1  UNL1        0.2100
     61 H          12.6832    3.5000    0.0000 H       1  UNL1        0.0524
     62 H          12.0632    4.1200    0.0000 H       1  UNL1        0.0524
     63 H          11.4432    3.5000    0.0000 H       1  UNL1        0.0524
     64 H           2.3249   -0.4174    0.0000 H       1  UNL1        0.0584
     65 H           1.9264   -1.1077    0.0000 H       1  UNL1        0.0584
     66 H           6.0010    1.6200    0.0000 H       1  UNL1        0.2101
     67 H           3.7320    2.3100    0.0000 H       1  UNL1        0.2100
     68 H           2.0000    0.6900    0.0000 H       1  UNL1        0.2100
     69 H           2.0000   -2.3100    0.0000 H       1  UNL1        0.2095
@<TRIPOS>BOND
     1    17     1    1
     2    23     1    1
     3     2    23    1
     4     2    25    1
     5    20     3    1
     6     3    34    1
     7    18     4    1
     8     4    53    1
     9    19     5    1
    10     5    54    1
    11    21     6    1
    12     6    56    1
    13    22     7    1
    14     7    57    1
    15     8    28    1
    16    29     8    1
    17    24     9    1
    18     9    58    1
    19    10    29    1
    20    10    33    1
    21    26    11    1
    22    11    59    1
    23    27    12    1
    24    12    60    1
    25    30    13    1
    26    13    66    1
    27    31    14    1
    28    14    67    1
    29    32    15    1
    30    15    68    1
    31    16    35    1
    32    16    69    1
    33    17    18    1
    34    17    19    1
    35    17    36    1
    36    18    20    1
    37    18    37    1
    38    19    21    1
    39    19    38    1
    40    20    22    1
    41    20    39    1
    42    21    22    1
    43    21    40    1
    44    22    41    1
    45    23    24    1
    46    23    42    1
    47    24    26    1
    48    24    43    1
    49    25    27    1
    50    25    28    1
    51    25    44    1
    52    26    27    1
    53    26    45    1
    54    27    46    1
    55    28    47    1
    56    28    48    1
    57    29    30    1
    58    29    49    1
    59    30    31    1
    60    30    50    1
    61    31    32    1
    62    31    51    1
    63    32    33    1
    64    32    52    1
    65    33    35    1
    66    33    55    1
    67    34    61    1
    68    34    62    1
    69    34    63    1
    70    35    64    1
    71    35    65    1
