@<TRIPOS>MOLECULE
IMPHY000910
 30 31 0 0 0
SMALL
GASTEIGER

@<TRIPOS>ATOM
      1 O           2.0000   -0.9746    0.0000 O.2     1  UNL1       -0.4701
      2 O           2.8660   -2.4746    0.0000 O.3     1  UNL1       -0.3573
      3 O           5.9674   -2.4361    0.0000 O.3     1  UNL1       -0.3907
      4 O           2.0000    2.0254    0.0000 O.3     1  UNL1       -0.4646
      5 O           3.7320    2.0254    0.0000 O.2     1  UNL1       -0.2452
      6 C           3.7320   -0.9746    0.0000 C.3     1  UNL1        0.0519
      7 C           3.7320    0.0254    0.0000 C.3     1  UNL1        0.0095
      8 C           4.6783    0.3301    0.0000 C.3     1  UNL1       -0.0265
      9 C           4.6783   -1.2793    0.0000 C.2     1  UNL1       -0.0388
     10 C           2.8660   -1.4746    0.0000 C.3     1  UNL1        0.2056
     11 C           5.2619   -0.4746    0.0000 C.2     1  UNL1       -0.0815
     12 C           2.8660    0.5254    0.0000 C.2     1  UNL1        0.0749
     13 C           4.9889   -2.2299    0.0000 C.3     1  UNL1        0.0658
     14 C           2.0000    0.0254    0.0000 C.2     1  UNL1        0.0981
     15 C           2.8660    1.5254    0.0000 C.2     1  UNL1        0.3381
     16 C           2.0000    3.0254    0.0000 C.3     1  UNL1        0.0820
     17 H           3.8220   -1.8198    0.0000 H       1  UNL1        0.0413
     18 H           3.8220    0.8706    0.0000 H       1  UNL1        0.0363
     19 H           5.2156    0.6394    0.0000 H       1  UNL1        0.0313
     20 H           4.4272    0.8970    0.0000 H       1  UNL1        0.0313
     21 H           3.4030   -1.7846    0.0000 H       1  UNL1        0.1060
     22 H           5.8819   -0.4746    0.0000 H       1  UNL1        0.0573
     23 H           4.3751   -2.3172    0.0000 H       1  UNL1        0.0604
     24 H           4.9684   -2.8495    0.0000 H       1  UNL1        0.0604
     25 H           1.4631    0.3354    0.0000 H       1  UNL1        0.1029
     26 H           2.3291   -2.7846    0.0000 H       1  UNL1        0.2136
     27 H           6.1600   -3.0254    0.0000 H       1  UNL1        0.2098
     28 H           2.6200    3.0254    0.0000 H       1  UNL1        0.0661
     29 H           2.0000    3.6454    0.0000 H       1  UNL1        0.0661
     30 H           1.3800    3.0254    0.0000 H       1  UNL1        0.0661
@<TRIPOS>BOND
     1     1    10    1
     2     1    14    1
     3    10     2    1
     4     2    26    1
     5     3    13    1
     6     3    27    1
     7     4    15    1
     8     4    16    1
     9     5    15    2
    10     6     7    1
    11     6     9    1
    12     6    10    1
    13     6    17    1
    14     7     8    1
    15     7    12    1
    16     7    18    1
    17     8    11    1
    18     8    19    1
    19     8    20    1
    20     9    11    2
    21     9    13    1
    22    10    21    1
    23    11    22    1
    24    12    14    2
    25    12    15    1
    26    13    23    1
    27    13    24    1
    28    14    25    1
    29    16    28    1
    30    16    29    1
    31    16    30    1
