@<TRIPOS>MOLECULE
IMPHY015943
 54 53 0 0 0
SMALL
GASTEIGER

@<TRIPOS>ATOM
      1 S           6.3301    0.2500    0.0000 S.O     1  UNL1        0.3055
      2 O           7.1962    0.7500    0.0000 O.3     1  UNL1       -0.2679
      3 O           5.4641    0.7500    0.0000 O.3     1  UNL1       -0.2679
      4 O           6.3301   -0.7500    0.0000 O.2     1  UNL1       -0.1962
      5 C          12.3923    0.7500    0.0000 C.3     1  UNL1       -0.0531
      6 C          13.2583    0.2500    0.0000 C.3     1  UNL1       -0.0531
      7 C          11.5263    0.2500    0.0000 C.3     1  UNL1       -0.0531
      8 C          14.1244    0.7500    0.0000 C.3     1  UNL1       -0.0531
      9 C          10.6603    0.7500    0.0000 C.3     1  UNL1       -0.0530
     10 C          14.9904    0.2500    0.0000 C.3     1  UNL1       -0.0531
     11 C           9.7942    0.2500    0.0000 C.3     1  UNL1       -0.0509
     12 C          15.8564    0.7500    0.0000 C.3     1  UNL1       -0.0533
     13 C           8.9282    0.7500    0.0000 C.3     1  UNL1       -0.0281
     14 C          16.7224    0.2500    0.0000 C.3     1  UNL1       -0.0559
     15 C           8.0622    0.2500    0.0000 C.3     1  UNL1        0.0667
     16 C          17.5885    0.7500    0.0000 C.3     1  UNL1       -0.0653
     17 C           3.7320    0.7500    0.0000 C.3     1  UNL1       -0.0284
     18 C           4.5981    0.2500    0.0000 C.3     1  UNL1        0.0667
     19 C           2.8660    0.2500    0.0000 C.3     1  UNL1       -0.0538
     20 C           2.0000    0.7500    0.0000 C.3     1  UNL1       -0.0652
     21 H          12.7908    1.2250    0.0000 H       1  UNL1        0.0265
     22 H          11.9938    1.2250    0.0000 H       1  UNL1        0.0265
     23 H          12.8598   -0.2249    0.0000 H       1  UNL1        0.0265
     24 H          13.6569   -0.2249    0.0000 H       1  UNL1        0.0265
     25 H          11.1278   -0.2249    0.0000 H       1  UNL1        0.0265
     26 H          11.9248   -0.2249    0.0000 H       1  UNL1        0.0265
     27 H          14.5229    1.2250    0.0000 H       1  UNL1        0.0265
     28 H          13.7258    1.2250    0.0000 H       1  UNL1        0.0265
     29 H          11.0588    1.2250    0.0000 H       1  UNL1        0.0265
     30 H          10.2617    1.2250    0.0000 H       1  UNL1        0.0265
     31 H          14.5919   -0.2249    0.0000 H       1  UNL1        0.0265
     32 H          15.3889   -0.2249    0.0000 H       1  UNL1        0.0265
     33 H           9.3957   -0.2249    0.0000 H       1  UNL1        0.0266
     34 H          10.1928   -0.2249    0.0000 H       1  UNL1        0.0266
     35 H          16.2549    1.2250    0.0000 H       1  UNL1        0.0265
     36 H          15.4579    1.2250    0.0000 H       1  UNL1        0.0265
     37 H           9.3267    1.2250    0.0000 H       1  UNL1        0.0288
     38 H           8.5297    1.2250    0.0000 H       1  UNL1        0.0288
     39 H          16.3239   -0.2249    0.0000 H       1  UNL1        0.0263
     40 H          17.1210   -0.2249    0.0000 H       1  UNL1        0.0263
     41 H           7.6636   -0.2249    0.0000 H       1  UNL1        0.0574
     42 H           8.4607   -0.2249    0.0000 H       1  UNL1        0.0574
     43 H          17.8985    0.2131    0.0000 H       1  UNL1        0.0230
     44 H          18.1254    1.0600    0.0000 H       1  UNL1        0.0230
     45 H          17.2785    1.2869    0.0000 H       1  UNL1        0.0230
     46 H           4.1306    1.2250    0.0000 H       1  UNL1        0.0288
     47 H           3.3335    1.2250    0.0000 H       1  UNL1        0.0288
     48 H           4.1996   -0.2249    0.0000 H       1  UNL1        0.0574
     49 H           4.9966   -0.2249    0.0000 H       1  UNL1        0.0574
     50 H           2.4675   -0.2249    0.0000 H       1  UNL1        0.0263
     51 H           3.2646   -0.2249    0.0000 H       1  UNL1        0.0263
     52 H           2.3100    1.2869    0.0000 H       1  UNL1        0.0230
     53 H           1.4631    1.0600    0.0000 H       1  UNL1        0.0230
     54 H           1.6900    0.2131    0.0000 H       1  UNL1        0.0230
@<TRIPOS>BOND
     1     1     2    1
     2     1     3    1
     3     1     4    2
     4     2    15    1
     5     3    18    1
     6     5     6    1
     7     5     7    1
     8     5    21    1
     9     5    22    1
    10     6     8    1
    11     6    23    1
    12     6    24    1
    13     7     9    1
    14     7    25    1
    15     7    26    1
    16     8    10    1
    17     8    27    1
    18     8    28    1
    19     9    11    1
    20     9    29    1
    21     9    30    1
    22    10    12    1
    23    10    31    1
    24    10    32    1
    25    11    13    1
    26    11    33    1
    27    11    34    1
    28    12    14    1
    29    12    35    1
    30    12    36    1
    31    13    15    1
    32    13    37    1
    33    13    38    1
    34    14    16    1
    35    14    39    1
    36    14    40    1
    37    15    41    1
    38    15    42    1
    39    16    43    1
    40    16    44    1
    41    16    45    1
    42    17    18    1
    43    17    19    1
    44    17    46    1
    45    17    47    1
    46    18    48    1
    47    18    49    1
    48    19    20    1
    49    19    50    1
    50    19    51    1
    51    20    52    1
    52    20    53    1
    53    20    54    1
