@<TRIPOS>MOLECULE
IMPHY005350
 43 44 0 0 0
SMALL
GASTEIGER

@<TRIPOS>ATOM
      1 O           5.1350   -0.5950    0.0000 O.3     1  UNL1       -0.3313
      2 O           6.8671   -0.5950    0.0000 O.3     1  UNL1       -0.4572
      3 O           5.1350   -3.5950    0.0000 O.3     1  UNL1       -0.3864
      4 O           3.4030   -2.5950    0.0000 O.3     1  UNL1       -0.3865
      5 O           6.8671   -2.5950    0.0000 O.3     1  UNL1       -0.3829
      6 O           2.5369   -1.0950    0.0000 O.3     1  UNL1       -0.3924
      7 O           8.5991    0.4050    0.0000 O.3     1  UNL1       -0.4914
      8 O           6.0010    3.9050    0.0000 O.2     1  UNL1       -0.2924
      9 C           5.1350   -2.5950    0.0000 C.3     1  UNL1        0.1152
     10 C           4.2690   -2.0950    0.0000 C.3     1  UNL1        0.1120
     11 C           6.0010   -2.0950    0.0000 C.3     1  UNL1        0.1454
     12 C           4.2690   -1.0950    0.0000 C.3     1  UNL1        0.1140
     13 C           6.0010   -1.0950    0.0000 C.3     1  UNL1        0.2310
     14 C           3.4030   -0.5950    0.0000 C.3     1  UNL1        0.0731
     15 C           6.8671    0.4050    0.0000 C.ar    1  UNL1        0.1654
     16 C           7.7331    0.9050    0.0000 C.ar    1  UNL1        0.1623
     17 C           6.0010    0.9050    0.0000 C.ar    1  UNL1       -0.0155
     18 C           7.7331    1.9050    0.0000 C.ar    1  UNL1       -0.0058
     19 C           6.0010    1.9050    0.0000 C.ar    1  UNL1       -0.0476
     20 C           6.8671    2.4050    0.0000 C.ar    1  UNL1        0.0208
     21 C           6.8671    3.4050    0.0000 C.2     1  UNL1        0.1602
     22 C           9.4651    0.9050    0.0000 C.3     1  UNL1        0.0790
     23 C           7.7331    3.9050    0.0000 C.3     1  UNL1       -0.0014
     24 H           5.6720   -2.9050    0.0000 H       1  UNL1        0.0648
     25 H           4.2690   -2.7150    0.0000 H       1  UNL1        0.0647
     26 H           6.5380   -1.7850    0.0000 H       1  UNL1        0.0683
     27 H           4.2690   -0.4750    0.0000 H       1  UNL1        0.0647
     28 H           6.0010   -0.4750    0.0000 H       1  UNL1        0.1084
     29 H           3.8015   -0.1201    0.0000 H       1  UNL1        0.0584
     30 H           3.0044   -0.1201    0.0000 H       1  UNL1        0.0584
     31 H           4.5981   -3.9050    0.0000 H       1  UNL1        0.2100
     32 H           3.4030   -3.2150    0.0000 H       1  UNL1        0.2100
     33 H           6.8671   -3.2150    0.0000 H       1  UNL1        0.2102
     34 H           2.0000   -0.7850    0.0000 H       1  UNL1        0.2095
     35 H           5.4641    0.5950    0.0000 H       1  UNL1        0.0655
     36 H           8.2700    2.2150    0.0000 H       1  UNL1        0.0662
     37 H           5.4641    2.2150    0.0000 H       1  UNL1        0.0626
     38 H           9.7751    0.3681    0.0000 H       1  UNL1        0.0660
     39 H          10.0021    1.2150    0.0000 H       1  UNL1        0.0660
     40 H           9.1551    1.4419    0.0000 H       1  UNL1        0.0660
     41 H           8.0431    3.3681    0.0000 H       1  UNL1        0.0309
     42 H           8.2700    4.2150    0.0000 H       1  UNL1        0.0309
     43 H           7.4231    4.4419    0.0000 H       1  UNL1        0.0309
@<TRIPOS>BOND
     1     1    12    1
     2     1    13    1
     3    13     2    1
     4     2    15    1
     5     9     3    1
     6     3    31    1
     7    10     4    1
     8     4    32    1
     9    11     5    1
    10     5    33    1
    11     6    14    1
    12     6    34    1
    13     7    16    1
    14     7    22    1
    15     8    21    2
    16     9    10    1
    17     9    11    1
    18     9    24    1
    19    10    12    1
    20    10    25    1
    21    11    13    1
    22    11    26    1
    23    12    14    1
    24    12    27    1
    25    13    28    1
    26    14    29    1
    27    14    30    1
    28    15    16   ar
    29    15    17   ar
    30    16    18   ar
    31    17    19   ar
    32    17    35    1
    33    18    20   ar
    34    18    36    1
    35    19    20   ar
    36    19    37    1
    37    20    21    1
    38    21    23    1
    39    22    38    1
    40    22    39    1
    41    22    40    1
    42    23    41    1
    43    23    42    1
    44    23    43    1
