@<TRIPOS>MOLECULE
IMPHY010639
 38 42 0 0 0
SMALL
GASTEIGER

@<TRIPOS>ATOM
      1 O           2.5357   -1.9563    0.0000 O.3     1  UNL1       -0.2203
      2 O           2.5519    0.1353    0.0000 O.3     1  UNL1       -0.2204
      3 O           5.3307    1.5961    0.0000 O.2     1  UNL1       -0.2914
      4 O           4.3500   -3.7342    0.0000 O.3     1  UNL1       -0.2203
      5 O          11.4608    1.1302    0.0000 O.3     1  UNL1       -0.4444
      6 O          10.6064   -0.3764    0.0000 O.2     1  UNL1       -0.2501
      7 C           7.0628   -0.4039    0.0000 C.3     1  UNL1        0.0100
      8 C           5.2868   -0.4108    0.0000 C.3     1  UNL1        0.0096
      9 C           6.1968    0.0961    0.0000 C.3     1  UNL1        0.0622
     10 C           7.9288    0.0961    0.0000 C.3     1  UNL1        0.0154
     11 C           5.2787   -1.4524    0.0000 C.3     1  UNL1        0.0054
     12 C           7.0789   -1.4454    0.0000 C.3     1  UNL1        0.0007
     13 C           4.3433   -2.0021    0.0000 C.3     1  UNL1        0.0612
     14 C           6.1808   -1.9732    0.0000 C.3     1  UNL1        0.0002
     15 C           7.9288    1.0961    0.0000 C.2     1  UNL1       -0.0457
     16 C           8.8228    1.6307    0.0000 C.3     1  UNL1        0.0059
     17 C           4.3599    0.1533    0.0000 C.3     1  UNL1        0.0360
     18 C           8.8228   -0.4386    0.0000 C.3     1  UNL1        0.0043
     19 C           9.7288    1.1169    0.0000 C.3     1  UNL1        0.0894
     20 C           9.7288    0.0752    0.0000 C.3     1  UNL1        0.0109
     21 C           6.1968    1.0961    0.0000 C.2     1  UNL1        0.1721
     22 C           3.4037   -1.4596    0.0000 C.3     1  UNL1        0.1844
     23 C           7.7056   -1.1700    0.0000 C.3     1  UNL1        0.0007
     24 C           3.4120   -0.3747    0.0000 C.3     1  UNL1        0.1822
     25 C           5.2945    0.5892    0.0000 C.3     1  UNL1        0.0005
     26 C           8.7977    2.7154    0.0000 C.3     1  UNL1        0.0003
     27 C           8.2709   -0.8436    0.0000 C.3     1  UNL1        0.0040
     28 C           7.0628    1.5961    0.0000 C.2     1  UNL1        0.0286
     29 C          10.6726    1.6521    0.0000 C.3     1  UNL1        0.0106
     30 C           9.7288    3.2723    0.0000 C.3     1  UNL1        0.0000
     31 C           3.8467   -2.8701    0.0000 C.3     1  UNL1        0.1845
     32 C           4.8467   -2.8662    0.0000 C.3     1  UNL1        0.0052
     33 C          10.6726    2.7371    0.0000 C.3     1  UNL1        0.0005
     34 C          10.5987    0.6236    0.0000 C.2     1  UNL1        0.3160
     35 C           7.9222    3.1986    0.0000 C.3     1  UNL1        0.0000
     36 C           9.7173    4.2723    0.0000 C.3     1  UNL1        0.0000
     37 C          12.3307    0.6369    0.0000 C.3     1  UNL1        0.2556
     38 H           8.1224    2.0173    0.0000 H       1  UNL1        0.0363
@<TRIPOS>BOND
     1     2    24    1
     2     3    21    2
     3     4    31    1
     4     5    34    1
     5     5    37    1
     6     6    34    2
     7     7     9    1
     8     7    10    1
     9     7    12    1
    10     7    23    1
    11     8     9    1
    12     8    11    1
    13     8    17    1
    14     8    25    1
    15     9    21    1
    16    10    15    1
    17    10    18    1
    18    10    27    1
    19    11    13    1
    20    11    14    1
    21    12    14    1
    22    13    22    1
    23    13    31    1
    24    13    32    1
    25    15    16    1
    26    15    28    2
    27    16    19    1
    28    16    26    1
    29    16    38    1
    30    17    24    1
    31    18    20    1
    32    19    20    1
    33    19    29    1
    34    19    34    1
    35    21    28    1
    36    22     1    1
    37    22    24    1
    38    26    30    1
    39    26    35    1
    40    29    33    1
    41    30    33    1
    42    30    36    1
