@<TRIPOS>MOLECULE
IMPHY001868
 54 56 0 0 0
SMALL
GASTEIGER

@<TRIPOS>ATOM
      1 O           5.1350    0.0390    0.0000 O.3     1  UNL1       -0.3313
      2 O           6.8671    0.0390    0.0000 O.3     1  UNL1       -0.4604
      3 O           5.1350   -2.9610    0.0000 O.3     1  UNL1       -0.3864
      4 O           3.4030   -1.9610    0.0000 O.3     1  UNL1       -0.3865
      5 O           6.8671   -1.9610    0.0000 O.3     1  UNL1       -0.3829
      6 O           2.5369   -0.4610    0.0000 O.3     1  UNL1       -0.3924
      7 O           9.4651    1.5390    0.0000 O.3     1  UNL1       -0.4572
      8 O          11.1972    0.5390    0.0000 O.3     1  UNL1       -0.3681
      9 O          12.6972    0.6729    0.0000 O.2     1  UNL1       -0.2934
     10 O          10.3312    0.0390    0.0000 O.2     1  UNL1       -0.2467
     11 C           5.1350   -1.9610    0.0000 C.3     1  UNL1        0.1152
     12 C           4.2690   -1.4610    0.0000 C.3     1  UNL1        0.1120
     13 C           6.0010   -1.4610    0.0000 C.3     1  UNL1        0.1454
     14 C           4.2690   -0.4610    0.0000 C.3     1  UNL1        0.1140
     15 C           6.0010   -0.4610    0.0000 C.3     1  UNL1        0.2308
     16 C           3.4030    0.0390    0.0000 C.3     1  UNL1        0.0731
     17 C           6.8671    1.0390    0.0000 C.ar    1  UNL1        0.1304
     18 C           7.7331    1.5390    0.0000 C.ar    1  UNL1        0.0315
     19 C          11.1972    1.5390    0.0000 C.3     1  UNL1        0.2393
     20 C          12.6972    2.4050    0.0000 C.3     1  UNL1        0.0131
     21 C           8.5991    1.0390    0.0000 C.3     1  UNL1        0.1210
     22 C           6.0010    1.5390    0.0000 C.ar    1  UNL1       -0.0194
     23 C          12.1972    1.5390    0.0000 C.2     1  UNL1        0.1800
     24 C          12.1972    3.2710    0.0000 C.3     1  UNL1       -0.0278
     25 C          10.6972    2.4050    0.0000 C.2     1  UNL1       -0.0385
     26 C          10.3312    1.0390    0.0000 C.2     1  UNL1        0.3512
     27 C           7.7331    2.5390    0.0000 C.ar    1  UNL1       -0.0519
     28 C          11.1972    3.2710    0.0000 C.2     1  UNL1       -0.0839
     29 C           6.0010    2.5390    0.0000 C.ar    1  UNL1       -0.0583
     30 C           6.8671    3.0390    0.0000 C.ar    1  UNL1       -0.0612
     31 H           5.6720   -2.2710    0.0000 H       1  UNL1        0.0648
     32 H           4.2690   -2.0810    0.0000 H       1  UNL1        0.0647
     33 H           6.5380   -1.1510    0.0000 H       1  UNL1        0.0683
     34 H           4.2690    0.1590    0.0000 H       1  UNL1        0.0647
     35 H           6.0010    0.1590    0.0000 H       1  UNL1        0.1084
     36 H           3.8015    0.5139    0.0000 H       1  UNL1        0.0584
     37 H           3.0044    0.5139    0.0000 H       1  UNL1        0.0584
     38 H           5.6720   -3.2710    0.0000 H       1  UNL1        0.2100
     39 H           3.4030   -2.5810    0.0000 H       1  UNL1        0.2100
     40 H           7.4040   -1.6510    0.0000 H       1  UNL1        0.2102
     41 H           2.0000   -0.1510    0.0000 H       1  UNL1        0.2095
     42 H          13.1721    2.0065    0.0000 H       1  UNL1        0.0346
     43 H          13.1721    2.8035    0.0000 H       1  UNL1        0.0346
     44 H           8.2006    0.5640    0.0000 H       1  UNL1        0.0750
     45 H           8.9976    0.5640    0.0000 H       1  UNL1        0.0750
     46 H           5.4641    1.2290    0.0000 H       1  UNL1        0.0654
     47 H          12.7798    3.4831    0.0000 H       1  UNL1        0.0311
     48 H          12.0895    3.8816    0.0000 H       1  UNL1        0.0311
     49 H          10.0772    2.4050    0.0000 H       1  UNL1        0.0607
     50 H          10.8872    3.8080    0.0000 H       1  UNL1        0.0570
     51 H           8.2700    2.8490    0.0000 H       1  UNL1        0.0623
     52 H           5.4641    2.8490    0.0000 H       1  UNL1        0.0619
     53 H           6.8671    3.6590    0.0000 H       1  UNL1        0.0618
     54 H          11.7341    0.2290    0.0000 H       1  UNL1        0.2117
@<TRIPOS>BOND
     1     1    14    1
     2     1    15    1
     3    15     2    1
     4     2    17    1
     5    11     3    1
     6     3    38    1
     7    12     4    1
     8     4    39    1
     9    13     5    1
    10     5    40    1
    11     6    16    1
    12     6    41    1
    13     7    21    1
    14     7    26    1
    15     8    19    1
    16     8    54    1
    17     9    23    2
    18    10    26    2
    19    11    12    1
    20    11    13    1
    21    11    31    1
    22    12    14    1
    23    12    32    1
    24    13    15    1
    25    13    33    1
    26    14    16    1
    27    14    34    1
    28    15    35    1
    29    16    36    1
    30    16    37    1
    31    17    18   ar
    32    17    22   ar
    33    18    21    1
    34    18    27   ar
    35    19    23    1
    36    19    25    1
    37    19    26    1
    38    20    23    1
    39    20    24    1
    40    20    42    1
    41    20    43    1
    42    21    44    1
    43    21    45    1
    44    22    29   ar
    45    22    46    1
    46    24    28    1
    47    24    47    1
    48    24    48    1
    49    25    28    2
    50    25    49    1
    51    27    30   ar
    52    27    51    1
    53    28    50    1
    54    29    30   ar
    55    29    52    1
    56    30    53    1
