@<TRIPOS>MOLECULE
IMPHY013277
 69 72 0 0 0
SMALL
GASTEIGER

@<TRIPOS>ATOM
      1 O           9.4893   -1.6818    0.0000 O.3     1  UNL1       -0.3882
      2 O           6.0010   -0.7907    0.0000 O.2     1  UNL1       -0.4709
      3 O           8.9900    1.4646    0.0000 O.3     1  UNL1       -0.4572
      4 O           6.8671   -2.2907    0.0000 O.3     1  UNL1       -0.3095
      5 O           5.1350   -2.2907    0.0000 O.3     1  UNL1       -0.3404
      6 O           6.8671   -4.2907    0.0000 O.3     1  UNL1       -0.3841
      7 O           5.1350   -5.2907    0.0000 O.3     1  UNL1       -0.3864
      8 O           3.4030   -4.2907    0.0000 O.3     1  UNL1       -0.3865
      9 O          10.6363    0.9265    0.0000 O.2     1  UNL1       -0.2449
     10 O           2.5369   -2.7907    0.0000 O.3     1  UNL1       -0.3924
     11 O           9.2541    5.0604    0.0000 O.3     1  UNL1       -0.4913
     12 O          12.5468    3.9842    0.0000 O.3     1  UNL1       -0.4913
     13 O          11.2111    5.4728    0.0000 O.3     1  UNL1       -0.5009
     14 C           7.7331   -0.7907    0.0000 C.3     1  UNL1        0.0599
     15 C           8.6793   -1.0954    0.0000 C.3     1  UNL1        0.0758
     16 C           7.7331    0.2093    0.0000 C.3     1  UNL1        0.0286
     17 C           8.6793    0.5140    0.0000 C.3     1  UNL1        0.1128
     18 C           9.2629   -0.2907    0.0000 C.3     1  UNL1        0.0141
     19 C           6.8671   -1.2907    0.0000 C.3     1  UNL1        0.2095
     20 C           8.3719   -2.0470    0.0000 C.3     1  UNL1       -0.0355
     21 C           6.8671    0.7093    0.0000 C.2     1  UNL1       -0.0424
     22 C           6.0010    0.2093    0.0000 C.2     1  UNL1        0.0843
     23 C           6.0010   -2.7907    0.0000 C.3     1  UNL1        0.1918
     24 C           6.0010   -3.7907    0.0000 C.3     1  UNL1        0.1342
     25 C           5.1350   -4.2907    0.0000 C.3     1  UNL1        0.1141
     26 C           4.2690   -3.7907    0.0000 C.3     1  UNL1        0.1119
     27 C           4.2690   -2.7907    0.0000 C.3     1  UNL1        0.1130
     28 C           9.9685    1.6708    0.0000 C.2     1  UNL1        0.3397
     29 C           3.4030   -2.2907    0.0000 C.3     1  UNL1        0.0730
     30 C          10.2791    2.6213    0.0000 C.ar    1  UNL1        0.0661
     31 C          11.2576    2.8275    0.0000 C.ar    1  UNL1       -0.0021
     32 C           9.6113    3.3656    0.0000 C.ar    1  UNL1       -0.0021
     33 C           9.9220    4.3161    0.0000 C.ar    1  UNL1        0.1658
     34 C          11.5683    3.7780    0.0000 C.ar    1  UNL1        0.1658
     35 C          10.9005    4.5223    0.0000 C.ar    1  UNL1        0.2011
     36 C           8.2756    4.8542    0.0000 C.3     1  UNL1        0.0790
     37 C          13.2147    3.2399    0.0000 C.3     1  UNL1        0.0790
     38 H           7.8230   -1.6359    0.0000 H       1  UNL1        0.0396
     39 H           7.8230    1.0545    0.0000 H       1  UNL1        0.0385
     40 H           8.2418    0.9534    0.0000 H       1  UNL1        0.0741
     41 H           9.7238   -0.7054    0.0000 H       1  UNL1        0.0329
     42 H           9.7238    0.1240    0.0000 H       1  UNL1        0.0329
     43 H           7.4040   -1.6007    0.0000 H       1  UNL1        0.1060
     44 H           7.7820   -1.8565    0.0000 H       1  UNL1        0.0257
     45 H           8.1814   -2.6370    0.0000 H       1  UNL1        0.0257
     46 H           8.9619   -2.2376    0.0000 H       1  UNL1        0.0257
     47 H           6.8671    1.3293    0.0000 H       1  UNL1        0.0606
     48 H          10.0553   -1.4287    0.0000 H       1  UNL1        0.2102
     49 H           5.4641    0.5193    0.0000 H       1  UNL1        0.1021
     50 H           6.0010   -2.1707    0.0000 H       1  UNL1        0.0939
     51 H           6.0010   -4.4107    0.0000 H       1  UNL1        0.0671
     52 H           4.5981   -4.6007    0.0000 H       1  UNL1        0.0648
     53 H           4.2690   -4.4107    0.0000 H       1  UNL1        0.0647
     54 H           4.2690   -2.1707    0.0000 H       1  UNL1        0.0647
     55 H           3.8015   -1.8158    0.0000 H       1  UNL1        0.0584
     56 H           3.0044   -1.8158    0.0000 H       1  UNL1        0.0584
     57 H           6.8671   -4.9107    0.0000 H       1  UNL1        0.2101
     58 H           4.5981   -5.6007    0.0000 H       1  UNL1        0.2100
     59 H           3.4030   -4.9107    0.0000 H       1  UNL1        0.2100
     60 H          11.6717    2.3660    0.0000 H       1  UNL1        0.0663
     61 H           9.0046    3.2377    0.0000 H       1  UNL1        0.0663
     62 H           2.0000   -2.4807    0.0000 H       1  UNL1        0.2095
     63 H          11.8178    5.6007    0.0000 H       1  UNL1        0.2924
     64 H           8.1478    5.4609    0.0000 H       1  UNL1        0.0660
     65 H           7.6689    4.7263    0.0000 H       1  UNL1        0.0660
     66 H           8.4035    4.2475    0.0000 H       1  UNL1        0.0660
     67 H          12.7532    2.8259    0.0000 H       1  UNL1        0.0660
     68 H          13.6287    2.7785    0.0000 H       1  UNL1        0.0660
     69 H          13.6761    3.6540    0.0000 H       1  UNL1        0.0660
@<TRIPOS>BOND
     1    15     1    1
     2     1    48    1
     3     2    19    1
     4     2    22    1
     5    17     3    1
     6     3    28    1
     7    19     4    1
     8    23     4    1
     9     5    23    1
    10     5    27    1
    11    24     6    1
    12     6    57    1
    13    25     7    1
    14     7    58    1
    15    26     8    1
    16     8    59    1
    17     9    28    2
    18    10    29    1
    19    10    62    1
    20    11    33    1
    21    11    36    1
    22    12    34    1
    23    12    37    1
    24    13    35    1
    25    13    63    1
    26    14    15    1
    27    14    16    1
    28    14    19    1
    29    14    38    1
    30    15    18    1
    31    15    20    1
    32    16    17    1
    33    16    21    1
    34    16    39    1
    35    17    18    1
    36    17    40    1
    37    18    41    1
    38    18    42    1
    39    19    43    1
    40    20    44    1
    41    20    45    1
    42    20    46    1
    43    21    22    2
    44    21    47    1
    45    22    49    1
    46    23    24    1
    47    23    50    1
    48    24    25    1
    49    24    51    1
    50    25    26    1
    51    25    52    1
    52    26    27    1
    53    26    53    1
    54    27    29    1
    55    27    54    1
    56    28    30    1
    57    29    55    1
    58    29    56    1
    59    30    31   ar
    60    30    32   ar
    61    31    34   ar
    62    31    60    1
    63    32    33   ar
    64    32    61    1
    65    33    35   ar
    66    34    35   ar
    67    36    64    1
    68    36    65    1
    69    36    66    1
    70    37    67    1
    71    37    68    1
    72    37    69    1
