@<TRIPOS>MOLECULE
IMPHY005177
 57 60 0 0 0
SMALL
GASTEIGER

@<TRIPOS>ATOM
      1 O           5.2476    1.4273    0.0000 O.3     1  UNL1       -0.4564
      2 O           6.8014    4.3049    0.0000 O.3     1  UNL1       -0.3907
      3 O           6.0010   -1.4090    0.0000 O.3     1  UNL1       -0.3443
      4 O           4.2690   -1.4090    0.0000 O.3     1  UNL1       -0.3405
      5 O           9.4361    0.3150    0.0000 O.2     1  UNL1       -0.2876
      6 O           6.0010   -3.4090    0.0000 O.3     1  UNL1       -0.3841
      7 O           4.2690   -4.4090    0.0000 O.3     1  UNL1       -0.3864
      8 O           3.6777    2.2584    0.0000 O.2     1  UNL1       -0.2453
      9 O           2.5369   -3.4090    0.0000 O.3     1  UNL1       -0.3865
     10 O           2.5369   -0.4090    0.0000 O.3     1  UNL1       -0.3924
     11 C           6.1988    1.7162    0.0000 C.3     1  UNL1        0.1233
     12 C           6.9701    1.0797    0.0000 C.3     1  UNL1        0.0490
     13 C           6.2155    2.7161    0.0000 C.3     1  UNL1        0.0545
     14 C           7.0076    3.3264    0.0000 C.3     1  UNL1        0.0693
     15 C           7.9486    1.2860    0.0000 C.2     1  UNL1        0.0090
     16 C           6.8671    0.0910    0.0000 C.2     1  UNL1       -0.0295
     17 C           7.9787    3.0876    0.0000 C.3     1  UNL1       -0.0045
     18 C           8.3975    2.1796    0.0000 C.2     1  UNL1       -0.0627
     19 C           5.2745    3.0365    0.0000 C.2     1  UNL1        0.0386
     20 C           8.4419    0.4229    0.0000 C.2     1  UNL1        0.1828
     21 C           7.7748   -0.3141    0.0000 C.2     1  UNL1       -0.0125
     22 C           6.0010   -0.4090    0.0000 C.3     1  UNL1        0.0729
     23 C           4.6775    2.2417    0.0000 C.2     1  UNL1        0.3354
     24 C           5.1350   -1.9090    0.0000 C.3     1  UNL1        0.1883
     25 C           5.1350   -2.9090    0.0000 C.3     1  UNL1        0.1341
     26 C           4.2690   -3.4090    0.0000 C.3     1  UNL1        0.1141
     27 C           3.4030   -2.9090    0.0000 C.3     1  UNL1        0.1119
     28 C           3.4030   -1.9090    0.0000 C.3     1  UNL1        0.1130
     29 C           9.3973    2.1629    0.0000 C.3     1  UNL1       -0.0430
     30 C           4.9797    3.9921    0.0000 C.2     1  UNL1       -0.0882
     31 C           2.5369   -1.4090    0.0000 C.3     1  UNL1        0.0730
     32 H           6.0320    0.8827    0.0000 H       1  UNL1        0.0750
     33 H           6.1835    0.7577    0.0000 H       1  UNL1        0.0432
     34 H           6.0766    3.5546    0.0000 H       1  UNL1        0.0413
     35 H           7.4533    3.7574    0.0000 H       1  UNL1        0.0604
     36 H           8.5854    3.2155    0.0000 H       1  UNL1        0.0335
     37 H           7.9890    3.7076    0.0000 H       1  UNL1        0.0335
     38 H           7.9027   -0.9208    0.0000 H       1  UNL1        0.0656
     39 H           5.7890    0.1736    0.0000 H       1  UNL1        0.0608
     40 H           5.3905   -0.5166    0.0000 H       1  UNL1        0.0608
     41 H           5.1350   -1.2890    0.0000 H       1  UNL1        0.0938
     42 H           5.1350   -3.5290    0.0000 H       1  UNL1        0.0671
     43 H           3.7320   -3.7190    0.0000 H       1  UNL1        0.0648
     44 H           2.8660   -2.5990    0.0000 H       1  UNL1        0.0647
     45 H           3.4030   -1.2890    0.0000 H       1  UNL1        0.0647
     46 H           9.3870    1.5430    0.0000 H       1  UNL1        0.0275
     47 H          10.0173    2.1525    0.0000 H       1  UNL1        0.0275
     48 H           9.4077    2.7828    0.0000 H       1  UNL1        0.0275
     49 H           7.2629    4.7190    0.0000 H       1  UNL1        0.2098
     50 H           5.4014    4.4466    0.0000 H       1  UNL1        0.0540
     51 H           4.3753    4.1301    0.0000 H       1  UNL1        0.0540
     52 H           1.9264   -1.3013    0.0000 H       1  UNL1        0.0584
     53 H           2.3249   -1.9916    0.0000 H       1  UNL1        0.0584
     54 H           6.5380   -3.0990    0.0000 H       1  UNL1        0.2101
     55 H           3.7320   -4.7190    0.0000 H       1  UNL1        0.2100
     56 H           2.0000   -3.0990    0.0000 H       1  UNL1        0.2100
     57 H           2.0000   -0.0990    0.0000 H       1  UNL1        0.2095
@<TRIPOS>BOND
     1     1    11    1
     2     1    23    1
     3    14     2    1
     4     2    49    1
     5     3    22    1
     6    24     3    1
     7     4    24    1
     8     4    28    1
     9     5    20    2
    10    25     6    1
    11     6    54    1
    12    26     7    1
    13     7    55    1
    14     8    23    2
    15    27     9    1
    16     9    56    1
    17    10    31    1
    18    10    57    1
    19    11    12    1
    20    11    13    1
    21    11    32    1
    22    12    15    1
    23    12    16    1
    24    12    33    1
    25    13    14    1
    26    13    19    1
    27    13    34    1
    28    14    17    1
    29    14    35    1
    30    15    18    2
    31    15    20    1
    32    16    21    2
    33    16    22    1
    34    17    18    1
    35    17    36    1
    36    17    37    1
    37    18    29    1
    38    19    23    1
    39    19    30    2
    40    20    21    1
    41    21    38    1
    42    22    39    1
    43    22    40    1
    44    24    25    1
    45    24    41    1
    46    25    26    1
    47    25    42    1
    48    26    27    1
    49    26    43    1
    50    27    28    1
    51    27    44    1
    52    28    31    1
    53    28    45    1
    54    29    46    1
    55    29    47    1
    56    29    48    1
    57    30    50    1
    58    30    51    1
    59    31    52    1
    60    31    53    1
