@<TRIPOS>MOLECULE
IMPHY007313
 80 84 0 0 0
SMALL
GASTEIGER

@<TRIPOS>ATOM
      1 O           2.5357   -2.6896    0.0000 O.3     1  UNL1       -0.3912
      2 O          11.4608    0.3969    0.0000 O.2     1  UNL1       -0.3004
      3 C           7.0628   -1.1372    0.0000 C.3     1  UNL1       -0.0231
      4 C           7.9288   -0.6372    0.0000 C.3     1  UNL1       -0.0232
      5 C           6.1968   -0.6372    0.0000 C.3     1  UNL1       -0.0294
      6 C           7.9288    0.3628    0.0000 C.3     1  UNL1       -0.0309
      7 C           5.2868   -1.1441    0.0000 C.3     1  UNL1       -0.0252
      8 C           8.8228    0.8974    0.0000 C.3     1  UNL1       -0.0191
      9 C           5.2787   -2.1857    0.0000 C.3     1  UNL1       -0.0278
     10 C           9.7288    0.3836    0.0000 C.3     1  UNL1        0.0296
     11 C           7.0789   -2.1788    0.0000 C.3     1  UNL1       -0.0466
     12 C           6.1968    0.3628    0.0000 C.3     1  UNL1       -0.0489
     13 C           8.8228   -1.1719    0.0000 C.3     1  UNL1       -0.0460
     14 C           7.0628    0.8628    0.0000 C.3     1  UNL1       -0.0491
     15 C           6.1808   -2.7065    0.0000 C.3     1  UNL1       -0.0486
     16 C           9.7288   -0.6581    0.0000 C.3     1  UNL1       -0.0401
     17 C           4.3433   -2.7354    0.0000 C.3     1  UNL1       -0.0056
     18 C           9.0329    1.9113    0.0000 C.3     1  UNL1       -0.0164
     19 C           4.3599   -0.5800    0.0000 C.3     1  UNL1       -0.0447
     20 C           7.7056   -1.9033    0.0000 C.3     1  UNL1       -0.0588
     21 C           8.2709   -1.5769    0.0000 C.3     1  UNL1       -0.0588
     22 C          10.4911    1.0843    0.0000 C.3     1  UNL1       -0.0401
     23 C          10.0619    2.0266    0.0000 C.3     1  UNL1       -0.0453
     24 C           5.2945   -0.1441    0.0000 C.3     1  UNL1       -0.0590
     25 C           3.4037   -2.1929    0.0000 C.3     1  UNL1        0.0606
     26 C           3.4120   -1.1080    0.0000 C.3     1  UNL1       -0.0258
     27 C          10.5987   -0.1097    0.0000 C.2     1  UNL1        0.1267
     28 C           3.8467   -3.6034    0.0000 C.3     1  UNL1       -0.0572
     29 C           4.8466   -3.5995    0.0000 C.3     1  UNL1       -0.0572
     30 C           8.3593    2.6505    0.0000 C.2     1  UNL1       -0.0763
     31 C           8.6626    3.6034    0.0000 C.3     1  UNL1       -0.0438
     32 C           7.3824    2.4367    0.0000 C.2     1  UNL1       -0.0994
     33 H           6.9329   -0.2122    0.0000 H       1  UNL1        0.0312
     34 H           7.9223    1.2127    0.0000 H       1  UNL1        0.0309
     35 H           8.1300    1.3900    0.0000 H       1  UNL1        0.0319
     36 H           5.2820   -3.0357    0.0000 H       1  UNL1        0.0312
     37 H           7.2969   -2.7592    0.0000 H       1  UNL1        0.0271
     38 H           7.6880   -2.0632    0.0000 H       1  UNL1        0.0271
     39 H           5.9847    0.9454    0.0000 H       1  UNL1        0.0268
     40 H           5.5862    0.2551    0.0000 H       1  UNL1        0.0268
     41 H           8.4182   -1.6417    0.0000 H       1  UNL1        0.0271
     42 H           9.2164   -1.6509    0.0000 H       1  UNL1        0.0271
     43 H           7.4613    1.3377    0.0000 H       1  UNL1        0.0268
     44 H           6.6643    1.3377    0.0000 H       1  UNL1        0.0268
     45 H           5.7835   -3.1825    0.0000 H       1  UNL1        0.0268
     46 H           6.5818   -3.1794    0.0000 H       1  UNL1        0.0268
     47 H           9.9379   -1.2418    0.0000 H       1  UNL1        0.0275
     48 H          10.3397   -0.5520    0.0000 H       1  UNL1        0.0275
     49 H           9.2513    2.4916    0.0000 H       1  UNL1        0.0348
     50 H           4.7681   -0.1134    0.0000 H       1  UNL1        0.0271
     51 H           3.9700   -0.0980    0.0000 H       1  UNL1        0.0271
     52 H           7.2306   -2.3018    0.0000 H       1  UNL1        0.0235
     53 H           8.1041   -2.3782    0.0000 H       1  UNL1        0.0235
     54 H           8.1805   -1.5048    0.0000 H       1  UNL1        0.0235
     55 H           7.6884   -1.7890    0.0000 H       1  UNL1        0.0235
     56 H           8.4830   -2.1595    0.0000 H       1  UNL1        0.0235
     57 H           8.8535   -1.3648    0.0000 H       1  UNL1        0.0235
     58 H          10.8604    0.5863    0.0000 H       1  UNL1        0.0275
     59 H          11.0252    1.3992    0.0000 H       1  UNL1        0.0275
     60 H          10.6500    2.2229    0.0000 H       1  UNL1        0.0271
     61 H           9.9285    2.6321    0.0000 H       1  UNL1        0.0271
     62 H           5.9145   -0.1489    0.0000 H       1  UNL1        0.0235
     63 H           5.2993    0.4759    0.0000 H       1  UNL1        0.0235
     64 H           4.6745   -0.1393    0.0000 H       1  UNL1        0.0235
     65 H           3.4025   -2.8129    0.0000 H       1  UNL1        0.0599
     66 H           3.2075   -0.5227    0.0000 H       1  UNL1        0.0290
     67 H           2.8004   -1.2093    0.0000 H       1  UNL1        0.0290
     68 H          10.6035   -0.7297    0.0000 H       1  UNL1        0.1032
     69 H           4.3109   -3.9116    0.0000 H       1  UNL1        0.0236
     70 H           5.1587   -4.1352    0.0000 H       1  UNL1        0.0236
     71 H           5.3824   -3.2874    0.0000 H       1  UNL1        0.0236
     72 H           3.3085   -3.2954    0.0000 H       1  UNL1        0.0236
     73 H           3.5387   -4.1415    0.0000 H       1  UNL1        0.0236
     74 H           4.3848   -3.9113    0.0000 H       1  UNL1        0.0236
     75 H           2.0000   -2.3775    0.0000 H       1  UNL1        0.2098
     76 H           9.2534    3.4153    0.0000 H       1  UNL1        0.0274
     77 H           8.8507    4.1941    0.0000 H       1  UNL1        0.0274
     78 H           8.0718    3.7914    0.0000 H       1  UNL1        0.0274
     79 H           6.9648    2.8950    0.0000 H       1  UNL1        0.0534
     80 H           7.1944    1.8459    0.0000 H       1  UNL1        0.0534
@<TRIPOS>BOND
     1    25     1    1
     2     1    75    1
     3     2    27    2
     4     3     4    1
     5     3     5    1
     6     3    11    1
     7     3    20    1
     8     4     6    1
     9     4    13    1
    10     4    21    1
    11     5     7    1
    12     5    12    1
    13     5    33    1
    14     6     8    1
    15     6    14    1
    16     6    34    1
    17     7     9    1
    18     7    19    1
    19     7    24    1
    20     8    10    1
    21     8    18    1
    22     8    35    1
    23     9    15    1
    24     9    17    1
    25     9    36    1
    26    10    16    1
    27    10    22    1
    28    10    27    1
    29    11    15    1
    30    11    37    1
    31    11    38    1
    32    12    14    1
    33    12    39    1
    34    12    40    1
    35    13    16    1
    36    13    41    1
    37    13    42    1
    38    14    43    1
    39    14    44    1
    40    15    45    1
    41    15    46    1
    42    16    47    1
    43    16    48    1
    44    17    25    1
    45    17    28    1
    46    17    29    1
    47    18    23    1
    48    18    30    1
    49    18    49    1
    50    19    26    1
    51    19    50    1
    52    19    51    1
    53    20    52    1
    54    20    53    1
    55    20    54    1
    56    21    55    1
    57    21    56    1
    58    21    57    1
    59    22    23    1
    60    22    58    1
    61    22    59    1
    62    23    60    1
    63    23    61    1
    64    24    62    1
    65    24    63    1
    66    24    64    1
    67    25    26    1
    68    25    65    1
    69    26    66    1
    70    26    67    1
    71    27    68    1
    72    28    72    1
    73    28    73    1
    74    28    74    1
    75    29    69    1
    76    29    70    1
    77    29    71    1
    78    30    31    1
    79    30    32    2
    80    31    76    1
    81    31    77    1
    82    31    78    1
    83    32    79    1
    84    32    80    1
