@<TRIPOS>MOLECULE
IMPHY014641
 30 29 0 0 0
SMALL
GASTEIGER

@<TRIPOS>ATOM
      1 O           4.5981   -1.2500    0.0000 O.3     1  UNL1       -0.3741
      2 O           5.4641    1.2500    0.0000 O.3     1  UNL1       -0.3865
      3 O           3.7320    1.2500    0.0000 O.3     1  UNL1       -0.3699
      4 O           6.3301   -1.2500    0.0000 O.3     1  UNL1       -0.3869
      5 O           8.0622   -0.2500    0.0000 O.3     1  UNL1       -0.3924
      6 O           2.0000    0.2500    0.0000 O.2     1  UNL1       -0.2982
      7 C           4.5981   -0.2500    0.0000 C.3     1  UNL1        0.1192
      8 C           5.4641    0.2500    0.0000 C.3     1  UNL1        0.1120
      9 C           6.3301   -0.2500    0.0000 C.3     1  UNL1        0.1065
     10 C           3.7320    0.2500    0.0000 C.3     1  UNL1        0.1414
     11 C           7.1962    0.2500    0.0000 C.3     1  UNL1        0.0727
     12 C           2.8660   -0.2500    0.0000 C.2     1  UNL1        0.1515
     13 C           3.7320   -1.7500    0.0000 C.3     1  UNL1        0.0370
     14 C           2.8660    1.7500    0.0000 C.3     1  UNL1        0.0375
     15 H           5.1350   -0.5600    0.0000 H       1  UNL1        0.0653
     16 H           6.0010    0.5600    0.0000 H       1  UNL1        0.0647
     17 H           6.8671   -0.5600    0.0000 H       1  UNL1        0.0643
     18 H           4.2690    0.5600    0.0000 H       1  UNL1        0.0700
     19 H           7.5947    0.7249    0.0000 H       1  UNL1        0.0584
     20 H           6.7976    0.7249    0.0000 H       1  UNL1        0.0584
     21 H           6.0010    1.5600    0.0000 H       1  UNL1        0.2100
     22 H           2.8660   -0.8700    0.0000 H       1  UNL1        0.1055
     23 H           6.8671   -1.5600    0.0000 H       1  UNL1        0.2100
     24 H           3.7320   -2.3700    0.0000 H       1  UNL1        0.0524
     25 H           3.5200   -1.1674    0.0000 H       1  UNL1        0.0524
     26 H           3.1215   -1.8577    0.0000 H       1  UNL1        0.0524
     27 H           2.8660    2.3700    0.0000 H       1  UNL1        0.0524
     28 H           2.2554    1.8577    0.0000 H       1  UNL1        0.0524
     29 H           2.6540    1.1674    0.0000 H       1  UNL1        0.0524
     30 H           8.5991    0.0600    0.0000 H       1  UNL1        0.2095
@<TRIPOS>BOND
     1     7     1    1
     2     1    13    1
     3     8     2    1
     4     2    21    1
     5    10     3    1
     6     3    14    1
     7     9     4    1
     8     4    23    1
     9     5    11    1
    10     5    30    1
    11     6    12    2
    12     7     8    1
    13     7    10    1
    14     7    15    1
    15     8     9    1
    16     8    16    1
    17     9    11    1
    18     9    17    1
    19    10    12    1
    20    10    18    1
    21    11    19    1
    22    11    20    1
    23    12    22    1
    24    13    24    1
    25    13    25    1
    26    13    26    1
    27    14    27    1
    28    14    28    1
    29    14    29    1
