@<TRIPOS>MOLECULE
IMPHY006056
 46 49 0 0 0
SMALL
GASTEIGER

@<TRIPOS>ATOM
      1 O           8.4641   -1.6429    0.0000 O.3     1  UNL1       -0.4641
      2 O           8.1912   -3.3982    0.0000 O.2     1  UNL1       -0.2505
      3 O           2.5381   -2.6671    0.0000 O.3     1  UNL1       -0.4914
      4 O           2.5381   -0.6188    0.0000 O.3     1  UNL1       -0.5033
      5 O           7.8003    2.3571    0.0000 O.3     1  UNL1       -0.4914
      6 O           6.0682    3.3571    0.0000 O.3     1  UNL1       -0.5033
      7 C           6.9343   -1.1429    0.0000 C.3     1  UNL1        0.0173
      8 C           6.9343   -2.1429    0.0000 C.3     1  UNL1        0.0671
      9 C           6.0682   -0.6429    0.0000 C.3     1  UNL1        0.0164
     10 C           6.0682   -2.6429    0.0000 C.3     1  UNL1       -0.0140
     11 C           7.8805   -0.8382    0.0000 C.3     1  UNL1        0.0969
     12 C           5.2022   -1.1429    0.0000 C.ar    1  UNL1       -0.0327
     13 C           5.2022   -2.1429    0.0000 C.ar    1  UNL1       -0.0391
     14 C           7.8805   -2.4477    0.0000 C.2     1  UNL1        0.3109
     15 C           6.0682    0.3571    0.0000 C.ar    1  UNL1       -0.0359
     16 C           4.3083   -0.6083    0.0000 C.ar    1  UNL1       -0.0125
     17 C           4.3083   -2.6776    0.0000 C.ar    1  UNL1       -0.0128
     18 C           6.9343    0.8571    0.0000 C.ar    1  UNL1       -0.0125
     19 C           5.2022    0.8571    0.0000 C.ar    1  UNL1       -0.0543
     20 C           3.4022   -1.1221    0.0000 C.ar    1  UNL1        0.1587
     21 C           3.4022   -2.1637    0.0000 C.ar    1  UNL1        0.1615
     22 C           6.9343    1.8571    0.0000 C.ar    1  UNL1        0.1615
     23 C           5.2022    1.8571    0.0000 C.ar    1  UNL1       -0.0162
     24 C           6.0682    2.3571    0.0000 C.ar    1  UNL1        0.1585
     25 C           2.5420   -3.6671    0.0000 C.3     1  UNL1        0.0790
     26 C           7.8003    3.3571    0.0000 C.3     1  UNL1        0.0790
     27 H           7.0242   -0.2977    0.0000 H       1  UNL1        0.0351
     28 H           7.0242   -2.9882    0.0000 H       1  UNL1        0.0421
     29 H           6.6052   -0.3329    0.0000 H       1  UNL1        0.0401
     30 H           5.6697   -3.1179    0.0000 H       1  UNL1        0.0321
     31 H           6.4668   -3.1179    0.0000 H       1  UNL1        0.0321
     32 H           8.4179   -0.5290    0.0000 H       1  UNL1        0.0701
     33 H           7.6295   -0.2713    0.0000 H       1  UNL1        0.0701
     34 H           4.3154    0.0117    0.0000 H       1  UNL1        0.0658
     35 H           4.3154   -3.2976    0.0000 H       1  UNL1        0.0658
     36 H           7.4712    0.5471    0.0000 H       1  UNL1        0.0658
     37 H           4.6653    0.5471    0.0000 H       1  UNL1        0.0622
     38 H           4.6653    2.1671    0.0000 H       1  UNL1        0.0655
     39 H           2.0000   -0.9267    0.0000 H       1  UNL1        0.2923
     40 H           1.9220   -3.6695    0.0000 H       1  UNL1        0.0660
     41 H           2.5444   -4.2871    0.0000 H       1  UNL1        0.0660
     42 H           3.1620   -3.6647    0.0000 H       1  UNL1        0.0660
     43 H           5.5313    3.6671    0.0000 H       1  UNL1        0.2923
     44 H           8.4203    3.3571    0.0000 H       1  UNL1        0.0660
     45 H           7.8003    3.9771    0.0000 H       1  UNL1        0.0660
     46 H           7.1803    3.3571    0.0000 H       1  UNL1        0.0660
@<TRIPOS>BOND
     1     1    11    1
     2     1    14    1
     3     2    14    2
     4     3    21    1
     5     3    25    1
     6     4    20    1
     7     4    39    1
     8     5    22    1
     9     5    26    1
    10     6    24    1
    11     6    43    1
    12     7     8    1
    13     7     9    1
    14     7    11    1
    15     7    27    1
    16     8    10    1
    17     8    14    1
    18     8    28    1
    19     9    12    1
    20     9    15    1
    21     9    29    1
    22    10    13    1
    23    10    30    1
    24    10    31    1
    25    11    32    1
    26    11    33    1
    27    12    13   ar
    28    12    16   ar
    29    13    17   ar
    30    15    18   ar
    31    15    19   ar
    32    16    20   ar
    33    16    34    1
    34    17    21   ar
    35    17    35    1
    36    18    22   ar
    37    18    36    1
    38    19    23   ar
    39    19    37    1
    40    20    21   ar
    41    22    24   ar
    42    23    24   ar
    43    23    38    1
    44    25    40    1
    45    25    41    1
    46    25    42    1
    47    26    44    1
    48    26    45    1
    49    26    46    1
