@<TRIPOS>MOLECULE
IMPHY009685
 25 26 0 0 0
SMALL
GASTEIGER

@<TRIPOS>ATOM
      1 O           2.5369    1.0000    0.0000 O.3     1  UNL1       -0.3862
      2 O           2.5369   -1.0000    0.0000 O.3     1  UNL1       -0.3861
      3 O           6.0290   -1.0347    0.0000 O.2     1  UNL1       -0.4645
      4 O           4.2690    2.0000    0.0000 O.3     1  UNL1       -0.3843
      5 O           4.2690   -2.0000    0.0000 O.3     1  UNL1       -0.3814
      6 O           6.0174    2.0346    0.0000 O.2     1  UNL1       -0.2873
      7 C           3.4030    0.5000    0.0000 C.3     1  UNL1        0.1140
      8 C           3.4030   -0.5000    0.0000 C.3     1  UNL1        0.1166
      9 C           4.2690    1.0000    0.0000 C.3     1  UNL1        0.1153
     10 C           4.2690   -1.0000    0.0000 C.3     1  UNL1        0.1412
     11 C           5.1350    0.5000    0.0000 C.ar    1  UNL1        0.0707
     12 C           5.1350   -0.5000    0.0000 C.ar    1  UNL1        0.1450
     13 C           6.0290    1.0347    0.0000 C.ar    1  UNL1        0.1908
     14 C           6.9350    0.5208    0.0000 C.ar    1  UNL1        0.0204
     15 C           6.9350   -0.5208    0.0000 C.ar    1  UNL1        0.0958
     16 H           3.4030    1.1200    0.0000 H       1  UNL1        0.0649
     17 H           3.4030   -1.1200    0.0000 H       1  UNL1        0.0651
     18 H           4.8059    1.3100    0.0000 H       1  UNL1        0.0673
     19 H           4.8059   -1.3100    0.0000 H       1  UNL1        0.0702
     20 H           2.0000    0.6900    0.0000 H       1  UNL1        0.2100
     21 H           2.5369   -1.6200    0.0000 H       1  UNL1        0.2100
     22 H           3.7320    2.3100    0.0000 H       1  UNL1        0.2103
     23 H           3.7320   -2.3100    0.0000 H       1  UNL1        0.2105
     24 H           7.4708    0.8329    0.0000 H       1  UNL1        0.0686
     25 H           7.4708   -0.8329    0.0000 H       1  UNL1        0.1030
@<TRIPOS>BOND
     1     7     1    1
     2     1    20    1
     3     8     2    1
     4     2    21    1
     5     3    12   ar
     6     3    15   ar
     7     9     4    1
     8     4    22    1
     9    10     5    1
    10     5    23    1
    11     6    13    2
    12     7     8    1
    13     7     9    1
    14     7    16    1
    15     8    10    1
    16     8    17    1
    17     9    11    1
    18     9    18    1
    19    10    12    1
    20    10    19    1
    21    11    12   ar
    22    11    13   ar
    23    13    14   ar
    24    14    15   ar
    25    14    24    1
    26    15    25    1
