@<TRIPOS>MOLECULE
IMPHY012762
 51 50 0 0 0
SMALL
GASTEIGER

@<TRIPOS>ATOM
      1 O           2.5369    0.4400    0.0000 O.3     1  UNL1       -0.4806
      2 O           3.4030   -1.0600    0.0000 O.2     1  UNL1       -0.2510
      3 O          18.9914   -0.0600    0.0000 O.3     1  UNL1       -0.3950
      4 C           6.8671   -0.0600    0.0000 C.3     1  UNL1       -0.0530
      5 C           7.7331    0.4400    0.0000 C.3     1  UNL1       -0.0528
      6 C           6.0010    0.4400    0.0000 C.3     1  UNL1       -0.0526
      7 C           8.5991   -0.0600    0.0000 C.3     1  UNL1       -0.0496
      8 C           5.1350   -0.0600    0.0000 C.3     1  UNL1       -0.0430
      9 C           9.4651    0.4400    0.0000 C.3     1  UNL1       -0.0345
     10 C           4.2690    0.4400    0.0000 C.3     1  UNL1        0.0448
     11 C          10.3312   -0.0600    0.0000 C.2     1  UNL1       -0.0840
     12 C          16.3933    0.4400    0.0000 C.3     1  UNL1       -0.0475
     13 C           3.4030   -0.0600    0.0000 C.2     1  UNL1        0.3047
     14 C          17.2594   -0.0600    0.0000 C.3     1  UNL1       -0.0294
     15 C          15.5273   -0.0600    0.0000 C.3     1  UNL1       -0.0344
     16 C          11.1972    0.4400    0.0000 C.2     1  UNL1       -0.0657
     17 C          18.1254    0.4400    0.0000 C.3     1  UNL1        0.0442
     18 C          14.6613    0.4400    0.0000 C.2     1  UNL1       -0.0840
     19 C          12.0632   -0.0600    0.0000 C.2     1  UNL1       -0.0621
     20 C          13.7953   -0.0600    0.0000 C.2     1  UNL1       -0.0657
     21 C          12.9292    0.4400    0.0000 C.2     1  UNL1       -0.0621
     22 H           6.4685   -0.5349    0.0000 H       1  UNL1        0.0265
     23 H           7.2656   -0.5349    0.0000 H       1  UNL1        0.0265
     24 H           8.1316    0.9149    0.0000 H       1  UNL1        0.0265
     25 H           7.3346    0.9149    0.0000 H       1  UNL1        0.0265
     26 H           6.3996    0.9149    0.0000 H       1  UNL1        0.0265
     27 H           5.6025    0.9149    0.0000 H       1  UNL1        0.0265
     28 H           8.2006   -0.5349    0.0000 H       1  UNL1        0.0268
     29 H           8.9976   -0.5349    0.0000 H       1  UNL1        0.0268
     30 H           4.7365   -0.5349    0.0000 H       1  UNL1        0.0270
     31 H           5.5335   -0.5349    0.0000 H       1  UNL1        0.0270
     32 H           9.8637    0.9149    0.0000 H       1  UNL1        0.0307
     33 H           9.0666    0.9149    0.0000 H       1  UNL1        0.0307
     34 H           4.6675    0.9149    0.0000 H       1  UNL1        0.0377
     35 H           3.8705    0.9149    0.0000 H       1  UNL1        0.0377
     36 H          10.3312   -0.6800    0.0000 H       1  UNL1        0.0572
     37 H          16.7919    0.9149    0.0000 H       1  UNL1        0.0269
     38 H          15.9948    0.9149    0.0000 H       1  UNL1        0.0269
     39 H          16.8608   -0.5349    0.0000 H       1  UNL1        0.0287
     40 H          17.6579   -0.5349    0.0000 H       1  UNL1        0.0287
     41 H          15.1288   -0.5349    0.0000 H       1  UNL1        0.0307
     42 H          15.9258   -0.5349    0.0000 H       1  UNL1        0.0307
     43 H          11.1972    1.0600    0.0000 H       1  UNL1        0.0614
     44 H          18.5239    0.9149    0.0000 H       1  UNL1        0.0557
     45 H          17.7269    0.9149    0.0000 H       1  UNL1        0.0557
     46 H          14.6613    1.0600    0.0000 H       1  UNL1        0.0572
     47 H          12.0632   -0.6800    0.0000 H       1  UNL1        0.0617
     48 H          13.7953   -0.6800    0.0000 H       1  UNL1        0.0614
     49 H          12.9292    1.0600    0.0000 H       1  UNL1        0.0617
     50 H           2.0000    0.1300    0.0000 H       1  UNL1        0.2951
     51 H          19.5284    0.2500    0.0000 H       1  UNL1        0.2094
@<TRIPOS>BOND
     1     1    13    1
     2     1    50    1
     3     2    13    2
     4     3    17    1
     5     3    51    1
     6     4     5    1
     7     4     6    1
     8     4    22    1
     9     4    23    1
    10     5     7    1
    11     5    24    1
    12     5    25    1
    13     6     8    1
    14     6    26    1
    15     6    27    1
    16     7     9    1
    17     7    28    1
    18     7    29    1
    19     8    10    1
    20     8    30    1
    21     8    31    1
    22     9    11    1
    23     9    32    1
    24     9    33    1
    25    10    13    1
    26    10    34    1
    27    10    35    1
    28    11    16    2
    29    11    36    1
    30    12    14    1
    31    12    15    1
    32    12    37    1
    33    12    38    1
    34    14    17    1
    35    14    39    1
    36    14    40    1
    37    15    18    1
    38    15    41    1
    39    15    42    1
    40    16    19    1
    41    16    43    1
    42    17    44    1
    43    17    45    1
    44    18    20    2
    45    18    46    1
    46    19    21    2
    47    19    47    1
    48    20    21    1
    49    20    48    1
    50    21    49    1
