@<TRIPOS>MOLECULE
IMPHY003420
 23 23 0 0 0
SMALL
GASTEIGER

@<TRIPOS>ATOM
      1 O           3.4030    1.7500    0.0000 O.3     1  UNL1       -0.3859
      2 O           2.5369   -1.7500    0.0000 O.3     1  UNL1       -0.5033
      3 O           4.2690   -2.7500    0.0000 O.3     1  UNL1       -0.5033
      4 N           5.1350    2.7500    0.0000 N.3     1  UNL1       -0.3274
      5 C           4.2690    1.2500    0.0000 C.3     1  UNL1        0.0925
      6 C           4.2690    0.2500    0.0000 C.ar    1  UNL1       -0.0143
      7 C           5.1350    1.7500    0.0000 C.3     1  UNL1        0.0235
      8 C           3.4030   -0.2500    0.0000 C.ar    1  UNL1       -0.0109
      9 C           5.1350   -0.2500    0.0000 C.ar    1  UNL1       -0.0524
     10 C           3.4030   -1.2500    0.0000 C.ar    1  UNL1        0.1586
     11 C           5.1350   -1.2500    0.0000 C.ar    1  UNL1       -0.0162
     12 C           4.2690   -1.7500    0.0000 C.ar    1  UNL1        0.1582
     13 H           4.2690    1.8700    0.0000 H       1  UNL1        0.0656
     14 H           5.3471    1.1674    0.0000 H       1  UNL1        0.0451
     15 H           5.7456    1.8577    0.0000 H       1  UNL1        0.0451
     16 H           2.8660    0.0600    0.0000 H       1  UNL1        0.0659
     17 H           5.6720    0.0600    0.0000 H       1  UNL1        0.0622
     18 H           5.6720   -1.5600    0.0000 H       1  UNL1        0.0655
     19 H           3.4030    2.3700    0.0000 H       1  UNL1        0.2103
     20 H           5.6720    3.0600    0.0000 H       1  UNL1        0.1183
     21 H           4.5981    3.0600    0.0000 H       1  UNL1        0.1183
     22 H           2.0000   -1.4400    0.0000 H       1  UNL1        0.2923
     23 H           4.8059   -3.0600    0.0000 H       1  UNL1        0.2923
@<TRIPOS>BOND
     1     5     1    1
     2     1    19    1
     3     2    10    1
     4     2    22    1
     5     3    12    1
     6     3    23    1
     7     4     7    1
     8     4    20    1
     9     4    21    1
    10     5     6    1
    11     5     7    1
    12     5    13    1
    13     6     8   ar
    14     6     9   ar
    15     7    14    1
    16     7    15    1
    17     8    10   ar
    18     8    16    1
    19     9    11   ar
    20     9    17    1
    21    10    12   ar
    22    11    12   ar
    23    11    18    1
