@<TRIPOS>MOLECULE
IMPHY013130
 32 33 0 0 0
SMALL
GASTEIGER

@<TRIPOS>ATOM
      1 O           6.3580    0.3575    0.0000 O.2     1  UNL1       -0.4214
      2 O           2.8660    0.3922    0.0000 O.3     1  UNL1       -0.4944
      3 O           8.1282    0.3681    0.0000 O.2     1  UNL1       -0.2452
      4 C           4.5981    0.3922    0.0000 C.ar    1  UNL1        0.0596
      5 C           5.4641    0.8922    0.0000 C.ar    1  UNL1        0.1496
      6 C           5.4641    1.8922    0.0000 C.ar    1  UNL1        0.0184
      7 C           3.7320    0.8922    0.0000 C.ar    1  UNL1        0.1308
      8 C           4.5981    2.3922    0.0000 C.ar    1  UNL1       -0.0476
      9 C           3.7320    1.8922    0.0000 C.ar    1  UNL1       -0.0186
     10 C           3.9554   -0.3739    0.0000 C.2     1  UNL1       -0.0473
     11 C           6.3580    2.4269    0.0000 C.ar    1  UNL1       -0.0443
     12 C           7.2641    1.9130    0.0000 C.ar    1  UNL1        0.0236
     13 C           7.2641    0.8714    0.0000 C.ar    1  UNL1        0.3372
     14 C           4.2973   -1.3135    0.0000 C.2     1  UNL1       -0.0586
     15 C           5.2821   -1.4872    0.0000 C.2     1  UNL1       -0.0575
     16 C           2.0000    0.8922    0.0000 C.3     1  UNL1        0.0788
     17 C           5.6241   -2.4269    0.0000 C.3     1  UNL1       -0.0403
     18 C           5.2821   -0.4872    0.0000 C.2     1  UNL1       -0.0958
     19 H           4.5981    3.0122    0.0000 H       1  UNL1        0.0626
     20 H           3.1951    2.2022    0.0000 H       1  UNL1        0.0654
     21 H           3.3447   -0.2662    0.0000 H       1  UNL1        0.0626
     22 H           6.3509    3.0468    0.0000 H       1  UNL1        0.0627
     23 H           7.7998    2.2251    0.0000 H       1  UNL1        0.0689
     24 H           3.8988   -1.7885    0.0000 H       1  UNL1        0.0620
     25 H           2.3100    1.4291    0.0000 H       1  UNL1        0.0660
     26 H           1.4631    1.2022    0.0000 H       1  UNL1        0.0660
     27 H           1.6900    0.3553    0.0000 H       1  UNL1        0.0660
     28 H           5.0415   -2.6389    0.0000 H       1  UNL1        0.0277
     29 H           5.8362   -3.0095    0.0000 H       1  UNL1        0.0277
     30 H           6.2068   -2.2148    0.0000 H       1  UNL1        0.0277
     31 H           5.8190   -0.1772    0.0000 H       1  UNL1        0.0537
     32 H           4.7452   -0.1772    0.0000 H       1  UNL1        0.0537
@<TRIPOS>BOND
     1     1     5   ar
     2     1    13   ar
     3     2     7    1
     4     2    16    1
     5     3    13    2
     6     4     5   ar
     7     4     7   ar
     8     4    10    1
     9     5     6   ar
    10     6     8   ar
    11     6    11   ar
    12     7     9   ar
    13     8     9   ar
    14     8    19    1
    15     9    20    1
    16    10    14    2
    17    10    21    1
    18    11    12   ar
    19    11    22    1
    20    12    13   ar
    21    12    23    1
    22    14    15    1
    23    14    24    1
    24    15    17    1
    25    15    18    2
    26    16    25    1
    27    16    26    1
    28    16    27    1
    29    17    28    1
    30    17    29    1
    31    17    30    1
    32    18    31    1
    33    18    32    1
