@<TRIPOS>MOLECULE
IMPHY014880
 47 51 0 0 0
SMALL
GASTEIGER

@<TRIPOS>ATOM
      1 O           6.1391   -1.9339    0.0000 O.3     1  UNL1       -0.3512
      2 O           3.7183   -2.5231    0.0000 O.3     1  UNL1       -0.3792
      3 N           7.5373   -0.6224    0.0000 N.3     1  UNL1       -0.2944
      4 N           5.0274   -0.3965    0.0000 N.pl3   1  UNL1       -0.3125
      5 C           6.1454   -0.7597    0.0000 C.3     1  UNL1        0.0596
      6 C           5.3364   -1.3475    0.0000 C.3     1  UNL1        0.1825
      7 C           8.3463   -0.0346    0.0000 C.3     1  UNL1       -0.0309
      8 C           6.3018    0.2280    0.0000 C.3     1  UNL1       -0.0295
      9 C           4.5274   -1.9353    0.0000 C.3     1  UNL1        0.1415
     10 C           8.4070    1.4591    0.0000 C.3     1  UNL1       -0.0075
     11 C           7.4072    1.4416    0.0000 C.3     1  UNL1        0.0058
     12 C           9.3226   -1.1583    0.0000 C.3     1  UNL1       -0.0367
     13 C           8.5136   -1.7461    0.0000 C.3     1  UNL1       -0.0004
     14 C           4.8370   -2.8799    0.0000 C.3     1  UNL1        0.0083
     15 C           3.7183   -1.3475    0.0000 C.ar    1  UNL1        0.0093
     16 C           5.8311   -2.8791    0.0000 C.3     1  UNL1        0.0535
     17 C           4.0274   -0.3965    0.0000 C.ar    1  UNL1        0.0354
     18 C           9.1017    2.1784    0.0000 C.2     1  UNL1       -0.0865
     19 C           2.7029   -1.5798    0.0000 C.ar    1  UNL1       -0.0539
     20 C           3.3424    0.3883    0.0000 C.ar    1  UNL1       -0.0404
     21 C           2.0000   -0.8111    0.0000 C.ar    1  UNL1       -0.0613
     22 C           2.3219    0.1796    0.0000 C.ar    1  UNL1       -0.0600
     23 C           8.8261    3.1397    0.0000 C.2     1  UNL1       -0.1023
     24 H           5.4206   -0.3156    0.0000 H       1  UNL1        0.0509
     25 H           9.0340    0.4650    0.0000 H       1  UNL1        0.0308
     26 H           6.3868    0.8421    0.0000 H       1  UNL1        0.0285
     27 H           5.6885    0.3190    0.0000 H       1  UNL1        0.0285
     28 H           8.9771    1.2152    0.0000 H       1  UNL1        0.0358
     29 H           7.3870    2.0613    0.0000 H       1  UNL1        0.0432
     30 H           6.7879    1.4120    0.0000 H       1  UNL1        0.0432
     31 H           9.7015   -1.6491    0.0000 H       1  UNL1        0.0280
     32 H           9.8023   -0.7654    0.0000 H       1  UNL1        0.0280
     33 H           8.0340   -2.1390    0.0000 H       1  UNL1        0.0427
     34 H           8.8924   -2.2369    0.0000 H       1  UNL1        0.0427
     35 H           4.2308   -3.0100    0.0000 H       1  UNL1        0.0320
     36 H           4.9027   -3.4964    0.0000 H       1  UNL1        0.0320
     37 H           5.3918    0.1051    0.0000 H       1  UNL1        0.1489
     38 H           5.7664   -3.4957    0.0000 H       1  UNL1        0.0562
     39 H           6.4375   -3.0081    0.0000 H       1  UNL1        0.0562
     40 H           9.7033    2.0284    0.0000 H       1  UNL1        0.0570
     41 H           3.7832   -3.1397    0.0000 H       1  UNL1        0.2108
     42 H           2.5182   -2.1716    0.0000 H       1  UNL1        0.0622
     43 H           3.5408    0.9757    0.0000 H       1  UNL1        0.0636
     44 H           1.3940   -0.9423    0.0000 H       1  UNL1        0.0618
     45 H           1.9088    0.6419    0.0000 H       1  UNL1        0.0618
     46 H           9.2568    3.5857    0.0000 H       1  UNL1        0.0532
     47 H           8.2245    3.2897    0.0000 H       1  UNL1        0.0532
@<TRIPOS>BOND
     1     6     1    1
     2     1    16    1
     3     9     2    1
     4     2    41    1
     5     3     5    1
     6     3    11    1
     7     3    13    1
     8     4     6    1
     9     4    17    1
    10     4    37    1
    11     5     6    1
    12     5     8    1
    13     5    24    1
    14     6     9    1
    15     7     8    1
    16     7    10    1
    17     7    12    1
    18     7    25    1
    19     8    26    1
    20     8    27    1
    21     9    14    1
    22     9    15    1
    23    10    11    1
    24    10    18    1
    25    10    28    1
    26    11    29    1
    27    11    30    1
    28    12    13    1
    29    12    31    1
    30    12    32    1
    31    13    33    1
    32    13    34    1
    33    14    16    1
    34    14    35    1
    35    14    36    1
    36    15    17   ar
    37    15    19   ar
    38    16    38    1
    39    16    39    1
    40    17    20   ar
    41    18    23    2
    42    18    40    1
    43    19    21   ar
    44    19    42    1
    45    20    22   ar
    46    20    43    1
    47    21    22   ar
    48    21    44    1
    49    22    45    1
    50    23    46    1
    51    23    47    1
