@<TRIPOS>MOLECULE
IMPHY009516
 39 39 0 0 0
SMALL
GASTEIGER

@<TRIPOS>ATOM
      1 O           5.1350   -2.6550    0.0000 O.3     1  UNL1       -0.3864
      2 O           2.5369   -2.1550    0.0000 O.3     1  UNL1       -0.3861
      3 O           3.4030   -0.6550    0.0000 O.3     1  UNL1       -0.3858
      4 O           5.1350    0.3450    0.0000 O.3     1  UNL1       -0.4585
      5 O           4.2690   -4.1550    0.0000 O.3     1  UNL1       -0.3819
      6 O           2.5369   -5.1550    0.0000 O.2     1  UNL1       -0.2982
      7 O           6.8671    0.3450    0.0000 O.2     1  UNL1       -0.2450
      8 O           4.2690    3.8450    0.0000 O.3     1  UNL1       -0.5032
      9 O           7.7331    3.8450    0.0000 O.3     1  UNL1       -0.5032
     10 O           6.0010    4.8450    0.0000 O.3     1  UNL1       -0.5009
     11 C           4.2690   -2.1550    0.0000 C.3     1  UNL1        0.1128
     12 C           3.4030   -2.6550    0.0000 C.3     1  UNL1        0.1159
     13 C           4.2690   -1.1550    0.0000 C.3     1  UNL1        0.1175
     14 C           3.4030   -3.6550    0.0000 C.3     1  UNL1        0.1381
     15 C           5.1350   -0.6550    0.0000 C.3     1  UNL1        0.1211
     16 C           2.5369   -4.1550    0.0000 C.2     1  UNL1        0.1512
     17 C           6.0010    0.8450    0.0000 C.2     1  UNL1        0.3395
     18 C           6.0010    1.8450    0.0000 C.ar    1  UNL1        0.0661
     19 C           6.8671    2.3450    0.0000 C.ar    1  UNL1       -0.0023
     20 C           5.1350    2.3450    0.0000 C.ar    1  UNL1       -0.0023
     21 C           5.1350    3.3450    0.0000 C.ar    1  UNL1        0.1628
     22 C           6.8671    3.3450    0.0000 C.ar    1  UNL1        0.1628
     23 C           6.0010    3.8450    0.0000 C.ar    1  UNL1        0.2006
     24 H           4.2690   -2.7750    0.0000 H       1  UNL1        0.0647
     25 H           3.4030   -2.0350    0.0000 H       1  UNL1        0.0650
     26 H           4.2690   -0.5350    0.0000 H       1  UNL1        0.0654
     27 H           3.9399   -3.3450    0.0000 H       1  UNL1        0.0697
     28 H           5.3471   -1.2376    0.0000 H       1  UNL1        0.0724
     29 H           5.7456   -0.5473    0.0000 H       1  UNL1        0.0724
     30 H           5.1350   -3.2750    0.0000 H       1  UNL1        0.2100
     31 H           2.0000   -2.4650    0.0000 H       1  UNL1        0.2100
     32 H           2.8660   -0.9650    0.0000 H       1  UNL1        0.2100
     33 H           2.0000   -3.8450    0.0000 H       1  UNL1        0.1055
     34 H           4.2690   -4.7750    0.0000 H       1  UNL1        0.2105
     35 H           7.4040    2.0350    0.0000 H       1  UNL1        0.0663
     36 H           4.5981    2.0350    0.0000 H       1  UNL1        0.0663
     37 H           3.7320    3.5350    0.0000 H       1  UNL1        0.2923
     38 H           8.2700    3.5350    0.0000 H       1  UNL1        0.2923
     39 H           6.5380    5.1550    0.0000 H       1  UNL1        0.2924
@<TRIPOS>BOND
     1    11     1    1
     2     1    30    1
     3    12     2    1
     4     2    31    1
     5    13     3    1
     6     3    32    1
     7     4    15    1
     8     4    17    1
     9    14     5    1
    10     5    34    1
    11     6    16    2
    12     7    17    2
    13     8    21    1
    14     8    37    1
    15     9    22    1
    16     9    38    1
    17    10    23    1
    18    10    39    1
    19    11    12    1
    20    11    13    1
    21    11    24    1
    22    12    14    1
    23    12    25    1
    24    13    15    1
    25    13    26    1
    26    14    16    1
    27    14    27    1
    28    15    28    1
    29    15    29    1
    30    16    33    1
    31    17    18    1
    32    18    19   ar
    33    18    20   ar
    34    19    22   ar
    35    19    35    1
    36    20    21   ar
    37    20    36    1
    38    21    23   ar
    39    22    23   ar
