@<TRIPOS>MOLECULE
IMPHY014969
 52 55 0 0 0
SMALL
GASTEIGER

@<TRIPOS>ATOM
      1 O           5.1350   -1.3729    0.0000 O.3     1  UNL1       -0.3313
      2 O           6.8671   -1.3729    0.0000 O.3     1  UNL1       -0.4606
      3 O           5.1350   -4.3729    0.0000 O.3     1  UNL1       -0.3864
      4 O           3.4030   -3.3729    0.0000 O.3     1  UNL1       -0.3865
      5 O           6.8671   -3.3729    0.0000 O.3     1  UNL1       -0.3829
      6 O           2.5369   -1.8729    0.0000 O.3     1  UNL1       -0.3924
      7 O           8.6230    1.6896    0.0000 O.2     1  UNL1       -0.4507
      8 O           5.1208    1.7062    0.0000 O.3     1  UNL1       -0.5058
      9 O           7.7666    4.1929    0.0000 O.3     1  UNL1       -0.5007
     10 O           6.0308    3.1996    0.0000 O.2     1  UNL1       -0.2830
     11 O          12.0987    4.6762    0.0000 O.3     1  UNL1       -0.5068
     12 C           5.1350   -3.3729    0.0000 C.3     1  UNL1        0.1152
     13 C           4.2690   -2.8729    0.0000 C.3     1  UNL1        0.1120
     14 C           6.0010   -2.8729    0.0000 C.3     1  UNL1        0.1454
     15 C           4.2690   -1.8729    0.0000 C.3     1  UNL1        0.1140
     16 C           6.0010   -1.8729    0.0000 C.3     1  UNL1        0.2308
     17 C           3.4030   -1.3729    0.0000 C.3     1  UNL1        0.0731
     18 C           6.8671   -0.3729    0.0000 C.ar    1  UNL1        0.1310
     19 C           7.7671    0.1514    0.0000 C.ar    1  UNL1        0.0235
     20 C           5.9670    0.1514    0.0000 C.ar    1  UNL1        0.0226
     21 C           7.7551    1.1930    0.0000 C.ar    1  UNL1        0.1465
     22 C           6.8910    1.6963    0.0000 C.ar    1  UNL1        0.1092
     23 C           5.9790    1.1930    0.0000 C.ar    1  UNL1        0.1348
     24 C           6.8948    2.6963    0.0000 C.ar    1  UNL1        0.2379
     25 C           8.6269    2.6896    0.0000 C.ar    1  UNL1        0.1806
     26 C           7.7628    3.1929    0.0000 C.ar    1  UNL1        0.2082
     27 C           9.4948    3.1862    0.0000 C.ar    1  UNL1        0.0213
     28 C          10.3589    2.6829    0.0000 C.ar    1  UNL1       -0.0475
     29 C           9.4987    4.1862    0.0000 C.ar    1  UNL1       -0.0475
     30 C          11.2269    3.1796    0.0000 C.ar    1  UNL1       -0.0195
     31 C          10.3666    4.6829    0.0000 C.ar    1  UNL1       -0.0195
     32 C          11.2307    4.1796    0.0000 C.ar    1  UNL1        0.1169
     33 H           5.6720   -3.6829    0.0000 H       1  UNL1        0.0648
     34 H           4.2690   -3.4929    0.0000 H       1  UNL1        0.0647
     35 H           6.5380   -2.5629    0.0000 H       1  UNL1        0.0683
     36 H           4.2690   -1.2529    0.0000 H       1  UNL1        0.0647
     37 H           6.0010   -1.2529    0.0000 H       1  UNL1        0.1084
     38 H           3.8015   -0.8980    0.0000 H       1  UNL1        0.0584
     39 H           3.0044   -0.8980    0.0000 H       1  UNL1        0.0584
     40 H           4.5981   -4.6829    0.0000 H       1  UNL1        0.2100
     41 H           3.4030   -3.9929    0.0000 H       1  UNL1        0.2100
     42 H           6.8671   -3.9929    0.0000 H       1  UNL1        0.2102
     43 H           2.0000   -1.5629    0.0000 H       1  UNL1        0.2095
     44 H           8.3064   -0.1545    0.0000 H       1  UNL1        0.0691
     45 H           5.4277   -0.1545    0.0000 H       1  UNL1        0.0691
     46 H           4.5792    1.4046    0.0000 H       1  UNL1        0.2922
     47 H          10.3565    2.0629    0.0000 H       1  UNL1        0.0626
     48 H           8.9630    4.4983    0.0000 H       1  UNL1        0.0626
     49 H           7.2309    4.5050    0.0000 H       1  UNL1        0.2924
     50 H          11.7626    2.8675    0.0000 H       1  UNL1        0.0654
     51 H          10.3690    5.3029    0.0000 H       1  UNL1        0.0654
     52 H          12.6344    4.3642    0.0000 H       1  UNL1        0.2921
@<TRIPOS>BOND
     1     1    15    1
     2     1    16    1
     3    16     2    1
     4     2    18    1
     5    12     3    1
     6     3    40    1
     7    13     4    1
     8     4    41    1
     9    14     5    1
    10     5    42    1
    11     6    17    1
    12     6    43    1
    13     7    21   ar
    14     7    25   ar
    15     8    23    1
    16     8    46    1
    17     9    26    1
    18     9    49    1
    19    10    24    2
    20    11    32    1
    21    11    52    1
    22    12    13    1
    23    12    14    1
    24    12    33    1
    25    13    15    1
    26    13    34    1
    27    14    16    1
    28    14    35    1
    29    15    17    1
    30    15    36    1
    31    16    37    1
    32    17    38    1
    33    17    39    1
    34    18    19   ar
    35    18    20   ar
    36    19    21   ar
    37    19    44    1
    38    20    23   ar
    39    20    45    1
    40    21    22   ar
    41    22    23   ar
    42    22    24   ar
    43    24    26   ar
    44    25    26   ar
    45    25    27    1
    46    27    28   ar
    47    27    29   ar
    48    28    30   ar
    49    28    47    1
    50    29    31   ar
    51    29    48    1
    52    30    32   ar
    53    30    50    1
    54    31    32   ar
    55    31    51    1
