@<TRIPOS>MOLECULE
IMPHY000466
 44 48 0 0 0
SMALL
GASTEIGER

@<TRIPOS>ATOM
      1 C           5.1753    8.4799    0.0000 C.ar    1  UNL1        0.4065
      2 C           5.1548    7.4864    0.0000 C.ar    1  UNL1        0.2372
      3 C           6.0595    8.9578    0.0000 C.ar    1  UNL1        0.1027
      4 O           4.3253    8.9987    0.0000 O.2     1  UNL1       -0.1989
      5 C           4.2809    7.0085    0.0000 C.ar    1  UNL1        0.0580
      6 O           6.0083    6.9675    0.0000 O.3     1  UNL1       -0.4416
      7 C           6.0697    9.9546    0.0000 C.ar    1  UNL1        0.0490
      8 C           6.9163    8.4491    0.0000 C.ar    1  UNL1        0.0123
      9 C           3.4513    8.5208    0.0000 C.ar    1  UNL1        0.3797
     10 C           3.4274    7.5240    0.0000 C.ar    1  UNL1        0.1384
     11 C           5.9810    5.9605    0.0000 C.3     1  UNL1        0.3221
     12 C           6.9402   10.4428    0.0000 C.ar    1  UNL1        0.1777
     13 C           7.7834    8.9373    0.0000 C.ar    1  UNL1        0.0455
     14 C           2.5979    9.0363    0.0000 C.ar    1  UNL1        0.1415
     15 C           2.5535    7.0426    0.0000 C.ar    1  UNL1        0.2072
     16 C           6.8446    5.4484    0.0000 C.3     1  UNL1        0.2542
     17 O           5.1070    5.4689    0.0000 O.3     1  UNL1       -0.3158
     18 C           7.7971    9.9307    0.0000 C.ar    1  UNL1        0.2293
     19 O           6.9607   11.4464    0.0000 O.3     1  UNL1       -0.4682
     20 C           1.7240    8.5584    0.0000 C.ar    1  UNL1        0.1507
     21 C           1.7001    7.5615    0.0000 C.ar    1  UNL1        0.0795
     22 O           2.5330    6.0424    0.0000 O.3     1  UNL1       -0.2862
     23 C           6.8310    4.4482    0.0000 C.3     1  UNL1        0.2211
     24 O           7.7186    5.9434    0.0000 O.3     1  UNL1       -0.2135
     25 C           5.0968    4.4687    0.0000 C.3     1  UNL1        0.1813
     26 O           8.6676   10.4223    0.0000 O.3     1  UNL1       -0.2833
     27 C           6.0970   11.9483    0.0000 C.3     1  UNL1        0.2526
     28 O           0.8671    9.0841    0.0000 O.3     1  UNL1       -0.4710
     29 C           5.9571    3.9566    0.0000 C.3     1  UNL1        0.2144
     30 O           7.6947    3.9361    0.0000 O.3     1  UNL1       -0.2173
     31 C           4.2160    3.9839    0.0000 C.3     1  UNL1        0.1771
     32 C           0.0000    8.5959    0.0000 C.3     1  UNL1        0.2525
     33 O           5.9468    2.9529    0.0000 O.3     1  UNL1       -0.2176
     34 O           4.2126    2.9837    0.0000 O.3     1  UNL1       -0.3259
     35 C           3.3353    2.4989    0.0000 C.3     1  UNL1        0.2695
     36 C           3.3319    1.4987    0.0000 C.3     1  UNL1        0.2406
     37 O           2.4682    3.0007    0.0000 O.3     1  UNL1       -0.3284
     38 C           2.4648    1.0002    0.0000 C.3     1  UNL1        0.2197
     39 O           4.2024    0.9968    0.0000 O.3     1  UNL1       -0.2149
     40 C           1.6011    2.5023    0.0000 C.3     1  UNL1        0.1508
     41 C           1.6011    1.5021    0.0000 C.3     1  UNL1        0.2118
     42 O           2.4613    0.0000    0.0000 O.3     1  UNL1       -0.2174
     43 C           0.7340    3.0075    0.0000 C.3     1  UNL1        0.0350
     44 O           0.7306    1.0037    0.0000 O.3     1  UNL1       -0.2177
@<TRIPOS>UNITY_ATOM_ATTR
4 1
charge 1
@<TRIPOS>BOND
     1     1     2   ar
     2     1     3    1
     3     1     4   ar
     4     2     5   ar
     5     2     6    1
     6     3     7   ar
     7     3     8   ar
     8     4     9   ar
     9     5    10   ar
    10     7    12   ar
    11     8    13   ar
    12     9    10   ar
    13     9    14   ar
    14    10    15   ar
    15    11     6    1
    16    11    16    1
    17    11    17    1
    18    12    18   ar
    19    12    19    1
    20    13    18   ar
    21    14    20   ar
    22    15    21   ar
    23    15    22    1
    24    16    23    1
    25    16    24    1
    26    17    25    1
    27    18    26    1
    28    19    27    1
    29    20    21   ar
    30    20    28    1
    31    23    29    1
    32    23    30    1
    33    25    29    1
    34    25    31    1
    35    28    32    1
    36    29    33    1
    37    31    34    1
    38    35    34    1
    39    35    36    1
    40    35    37    1
    41    36    38    1
    42    36    39    1
    43    37    40    1
    44    38    41    1
    45    38    42    1
    46    40    41    1
    47    40    43    1
    48    41    44    1
