@<TRIPOS>MOLECULE
IMPHY001122
 95 97 0 0 0
SMALL
GASTEIGER

@<TRIPOS>ATOM
      1 O           8.6148   -1.4981    0.0000 O.3     1  UNL1       -0.5060
      2 O          10.3469    1.5019    0.0000 O.3     1  UNL1       -0.5055
      3 O           6.8828    1.5019    0.0000 O.3     1  UNL1       -0.5055
      4 O           9.4808    3.0019    0.0000 O.2     1  UNL1       -0.2915
      5 O           4.9132   -0.1507    0.0000 O.3     1  UNL1       -0.5055
      6 O          11.0309   -2.3774    0.0000 O.3     1  UNL1       -0.5055
      7 O           7.5668   -2.3774    0.0000 O.3     1  UNL1       -0.5060
      8 O          11.6325    1.0340    0.0000 O.3     1  UNL1       -0.5060
      9 O           4.3117   -3.5623    0.0000 O.3     1  UNL1       -0.4939
     10 O          14.2861   -1.1927    0.0000 O.3     1  UNL1       -0.4939
     11 O           3.2856   -0.7432    0.0000 O.2     1  UNL1       -0.2915
     12 O          12.3577   -3.4908    0.0000 O.2     1  UNL1       -0.2915
     13 C           7.7488    0.0019    0.0000 C.ar    1  UNL1        0.0411
     14 C           9.4808    0.0019    0.0000 C.ar    1  UNL1        0.0411
     15 C           6.8828   -0.4981    0.0000 C.3     1  UNL1        0.0115
     16 C          10.3469   -0.4981    0.0000 C.3     1  UNL1        0.0115
     17 C           8.6148    1.5019    0.0000 C.ar    1  UNL1        0.1011
     18 C           8.6148   -0.4981    0.0000 C.ar    1  UNL1        0.1308
     19 C           9.4808    1.0019    0.0000 C.ar    1  UNL1        0.1378
     20 C           7.7488    1.0019    0.0000 C.ar    1  UNL1        0.1378
     21 C           7.7488    3.0019    0.0000 C.3     1  UNL1        0.0193
     22 C           6.2401   -1.2642    0.0000 C.ar    1  UNL1        0.0411
     23 C          11.3317   -0.6717    0.0000 C.ar    1  UNL1        0.0411
     24 C           8.6148    2.5019    0.0000 C.2     1  UNL1        0.1730
     25 C           7.7488    4.0019    0.0000 C.3     1  UNL1       -0.0463
     26 C           5.2552   -1.0905    0.0000 C.ar    1  UNL1        0.1378
     27 C          11.6737   -1.6114    0.0000 C.ar    1  UNL1        0.1378
     28 C           6.5820   -2.2038    0.0000 C.ar    1  UNL1        0.1302
     29 C          11.9745    0.0943    0.0000 C.ar    1  UNL1        0.1302
     30 C           4.6124   -1.8566    0.0000 C.ar    1  UNL1        0.1013
     31 C          12.6585   -1.7850    0.0000 C.ar    1  UNL1        0.1013
     32 C           5.9392   -2.9698    0.0000 C.ar    1  UNL1        0.0337
     33 C          12.9593   -0.0793    0.0000 C.ar    1  UNL1        0.0337
     34 C           6.8828    2.5019    0.0000 C.3     1  UNL1       -0.0554
     35 C           4.9545   -2.7963    0.0000 C.ar    1  UNL1        0.1405
     36 C          13.3013   -1.0190    0.0000 C.ar    1  UNL1        0.1405
     37 C           3.6276   -1.6829    0.0000 C.2     1  UNL1        0.1727
     38 C          13.0005   -2.7247    0.0000 C.2     1  UNL1        0.1727
     39 C           2.9848   -2.4490    0.0000 C.3     1  UNL1        0.0167
     40 C          13.9853   -2.8984    0.0000 C.3     1  UNL1        0.0167
     41 C           6.8828    4.5019    0.0000 C.3     1  UNL1       -0.0646
     42 C           6.2812   -3.9095    0.0000 C.3     1  UNL1       -0.0327
     43 C          13.6021    0.6867    0.0000 C.3     1  UNL1       -0.0327
     44 C           2.0000   -2.2753    0.0000 C.3     1  UNL1       -0.0556
     45 C           3.3269   -3.3887    0.0000 C.3     1  UNL1       -0.0556
     46 C          14.3274   -3.8381    0.0000 C.3     1  UNL1       -0.0556
     47 C          14.6281   -2.1324    0.0000 C.3     1  UNL1       -0.0556
     48 C           4.6536   -4.5019    0.0000 C.3     1  UNL1        0.0788
     49 C          14.9289   -0.4266    0.0000 C.3     1  UNL1        0.0788
     50 H           6.8108    0.1177    0.0000 H       1  UNL1        0.0366
     51 H           7.2813   -0.9730    0.0000 H       1  UNL1        0.0366
     52 H           9.8496   -0.8683    0.0000 H       1  UNL1        0.0366
     53 H          10.5589    0.0845    0.0000 H       1  UNL1        0.0366
     54 H           7.7488    2.3819    0.0000 H       1  UNL1        0.0378
     55 H           8.3594    3.8943    0.0000 H       1  UNL1        0.0269
     56 H           7.9608    4.5845    0.0000 H       1  UNL1        0.0269
     57 H           6.5728    3.0389    0.0000 H       1  UNL1        0.0237
     58 H           6.3458    2.1919    0.0000 H       1  UNL1        0.0237
     59 H           7.1928    1.9650    0.0000 H       1  UNL1        0.0237
     60 H           2.5863   -2.9239    0.0000 H       1  UNL1        0.0375
     61 H          14.5959   -3.0061    0.0000 H       1  UNL1        0.0375
     62 H           7.1928    5.0389    0.0000 H       1  UNL1        0.0230
     63 H           6.3458    4.8119    0.0000 H       1  UNL1        0.0230
     64 H           6.5728    3.9650    0.0000 H       1  UNL1        0.0230
     65 H           8.0779   -1.8081    0.0000 H       1  UNL1        0.2922
     66 H          10.8838    1.1919    0.0000 H       1  UNL1        0.2922
     67 H           6.3458    1.1919    0.0000 H       1  UNL1        0.2922
     68 H           5.6986   -4.1216    0.0000 H       1  UNL1        0.0280
     69 H           6.4933   -4.4922    0.0000 H       1  UNL1        0.0280
     70 H           6.8638   -3.6975    0.0000 H       1  UNL1        0.0280
     71 H          14.0770    0.2882    0.0000 H       1  UNL1        0.0280
     72 H          14.0006    1.1617    0.0000 H       1  UNL1        0.0280
     73 H          13.1271    1.0853    0.0000 H       1  UNL1        0.0280
     74 H           2.1077   -1.6647    0.0000 H       1  UNL1        0.0236
     75 H           1.3894   -2.1676    0.0000 H       1  UNL1        0.0236
     76 H           1.8923   -2.8859    0.0000 H       1  UNL1        0.0236
     77 H           2.7443   -3.6007    0.0000 H       1  UNL1        0.0236
     78 H           3.5389   -3.9713    0.0000 H       1  UNL1        0.0236
     79 H           3.9095   -3.1766    0.0000 H       1  UNL1        0.0236
     80 H          13.7448   -4.0501    0.0000 H       1  UNL1        0.0236
     81 H          14.5394   -4.4207    0.0000 H       1  UNL1        0.0236
     82 H          14.9100   -3.6260    0.0000 H       1  UNL1        0.0236
     83 H          15.1031   -2.5309    0.0000 H       1  UNL1        0.0236
     84 H          15.0267   -1.6574    0.0000 H       1  UNL1        0.0236
     85 H          14.1532   -1.7338    0.0000 H       1  UNL1        0.0236
     86 H           4.3026   -0.0431    0.0000 H       1  UNL1        0.2922
     87 H          11.2430   -2.9601    0.0000 H       1  UNL1        0.2922
     88 H           7.7789   -2.9601    0.0000 H       1  UNL1        0.2922
     89 H          12.0310    1.5090    0.0000 H       1  UNL1        0.2922
     90 H           4.0710   -4.7140    0.0000 H       1  UNL1        0.0660
     91 H           4.8657   -5.0846    0.0000 H       1  UNL1        0.0660
     92 H           5.2363   -4.2899    0.0000 H       1  UNL1        0.0660
     93 H          15.4038   -0.8251    0.0000 H       1  UNL1        0.0660
     94 H          15.3274    0.0483    0.0000 H       1  UNL1        0.0660
     95 H          14.4539   -0.0281    0.0000 H       1  UNL1        0.0660
@<TRIPOS>BOND
     1     1    18    1
     2     1    65    1
     3     2    19    1
     4     2    66    1
     5     3    20    1
     6     3    67    1
     7     4    24    2
     8     5    26    1
     9     5    86    1
    10     6    27    1
    11     6    87    1
    12     7    28    1
    13     7    88    1
    14     8    29    1
    15     8    89    1
    16     9    35    1
    17     9    48    1
    18    10    36    1
    19    10    49    1
    20    11    37    2
    21    12    38    2
    22    13    15    1
    23    13    18   ar
    24    13    20   ar
    25    14    16    1
    26    14    18   ar
    27    14    19   ar
    28    15    22    1
    29    15    50    1
    30    15    51    1
    31    16    23    1
    32    16    52    1
    33    16    53    1
    34    17    19   ar
    35    17    20   ar
    36    17    24    1
    37    21    24    1
    38    21    25    1
    39    21    34    1
    40    21    54    1
    41    22    26   ar
    42    22    28   ar
    43    23    27   ar
    44    23    29   ar
    45    25    41    1
    46    25    55    1
    47    25    56    1
    48    26    30   ar
    49    27    31   ar
    50    28    32   ar
    51    29    33   ar
    52    30    35   ar
    53    30    37    1
    54    31    36   ar
    55    31    38    1
    56    32    35   ar
    57    32    42    1
    58    33    36   ar
    59    33    43    1
    60    34    57    1
    61    34    58    1
    62    34    59    1
    63    37    39    1
    64    38    40    1
    65    39    44    1
    66    39    45    1
    67    39    60    1
    68    40    46    1
    69    40    47    1
    70    40    61    1
    71    41    62    1
    72    41    63    1
    73    41    64    1
    74    42    68    1
    75    42    69    1
    76    42    70    1
    77    43    71    1
    78    43    72    1
    79    43    73    1
    80    44    74    1
    81    44    75    1
    82    44    76    1
    83    45    77    1
    84    45    78    1
    85    45    79    1
    86    46    80    1
    87    46    81    1
    88    46    82    1
    89    47    83    1
    90    47    84    1
    91    47    85    1
    92    48    90    1
    93    48    91    1
    94    48    92    1
    95    49    93    1
    96    49    94    1
    97    49    95    1
