@<TRIPOS>MOLECULE
IMPHY008930
 94 93 0 0 0
SMALL
GASTEIGER

@<TRIPOS>ATOM
      1 O          14.9904   -0.7500    0.0000 O.2     1  UNL1       -0.2974
      2 C          20.1865    0.2500    0.0000 C.3     1  UNL1       -0.0531
      3 C           9.7942    0.2500    0.0000 C.3     1  UNL1       -0.0531
      4 C          21.0526    0.7500    0.0000 C.3     1  UNL1       -0.0531
      5 C           8.9282    0.7500    0.0000 C.3     1  UNL1       -0.0531
      6 C          19.3205    0.7500    0.0000 C.3     1  UNL1       -0.0531
      7 C          10.6603    0.7500    0.0000 C.3     1  UNL1       -0.0531
      8 C          21.9186    0.2500    0.0000 C.3     1  UNL1       -0.0531
      9 C           8.0622    0.2500    0.0000 C.3     1  UNL1       -0.0531
     10 C          18.4545    0.2500    0.0000 C.3     1  UNL1       -0.0530
     11 C          11.5263    0.2500    0.0000 C.3     1  UNL1       -0.0530
     12 C          22.7846    0.7500    0.0000 C.3     1  UNL1       -0.0531
     13 C           7.1962    0.7500    0.0000 C.3     1  UNL1       -0.0531
     14 C          17.5885    0.7500    0.0000 C.3     1  UNL1       -0.0527
     15 C          12.3923    0.7500    0.0000 C.3     1  UNL1       -0.0527
     16 C          23.6506    0.2500    0.0000 C.3     1  UNL1       -0.0531
     17 C           6.3301    0.2500    0.0000 C.3     1  UNL1       -0.0531
     18 C          16.7224    0.2500    0.0000 C.3     1  UNL1       -0.0464
     19 C          13.2583    0.2500    0.0000 C.3     1  UNL1       -0.0464
     20 C          24.5167    0.7500    0.0000 C.3     1  UNL1       -0.0531
     21 C           5.4641    0.7500    0.0000 C.3     1  UNL1       -0.0531
     22 C          15.8564    0.7500    0.0000 C.3     1  UNL1        0.0058
     23 C          14.1244    0.7500    0.0000 C.3     1  UNL1        0.0058
     24 C          25.3827    0.2500    0.0000 C.3     1  UNL1       -0.0531
     25 C           4.5981    0.2500    0.0000 C.3     1  UNL1       -0.0531
     26 C          14.9904    0.2500    0.0000 C.2     1  UNL1        0.1334
     27 C          26.2487    0.7500    0.0000 C.3     1  UNL1       -0.0533
     28 C           3.7320    0.7500    0.0000 C.3     1  UNL1       -0.0533
     29 C          27.1147    0.2500    0.0000 C.3     1  UNL1       -0.0559
     30 C           2.8660    0.2500    0.0000 C.3     1  UNL1       -0.0559
     31 C          27.9808    0.7500    0.0000 C.3     1  UNL1       -0.0653
     32 C           2.0000    0.7500    0.0000 C.3     1  UNL1       -0.0653
     33 H          19.7880   -0.2249    0.0000 H       1  UNL1        0.0265
     34 H          20.5851   -0.2249    0.0000 H       1  UNL1        0.0265
     35 H           9.3957   -0.2249    0.0000 H       1  UNL1        0.0265
     36 H          10.1928   -0.2249    0.0000 H       1  UNL1        0.0265
     37 H          21.4511    1.2250    0.0000 H       1  UNL1        0.0265
     38 H          20.6540    1.2250    0.0000 H       1  UNL1        0.0265
     39 H           9.3267    1.2250    0.0000 H       1  UNL1        0.0265
     40 H           8.5297    1.2250    0.0000 H       1  UNL1        0.0265
     41 H          19.7190    1.2250    0.0000 H       1  UNL1        0.0265
     42 H          18.9220    1.2250    0.0000 H       1  UNL1        0.0265
     43 H          11.0588    1.2250    0.0000 H       1  UNL1        0.0265
     44 H          10.2617    1.2250    0.0000 H       1  UNL1        0.0265
     45 H          21.5201   -0.2249    0.0000 H       1  UNL1        0.0265
     46 H          22.3171   -0.2249    0.0000 H       1  UNL1        0.0265
     47 H           7.6636   -0.2249    0.0000 H       1  UNL1        0.0265
     48 H           8.4607   -0.2249    0.0000 H       1  UNL1        0.0265
     49 H          18.0560   -0.2249    0.0000 H       1  UNL1        0.0265
     50 H          18.8530   -0.2249    0.0000 H       1  UNL1        0.0265
     51 H          11.1278   -0.2249    0.0000 H       1  UNL1        0.0265
     52 H          11.9248   -0.2249    0.0000 H       1  UNL1        0.0265
     53 H          23.1831    1.2250    0.0000 H       1  UNL1        0.0265
     54 H          22.3861    1.2250    0.0000 H       1  UNL1        0.0265
     55 H           7.5947    1.2250    0.0000 H       1  UNL1        0.0265
     56 H           6.7976    1.2250    0.0000 H       1  UNL1        0.0265
     57 H          17.9870    1.2250    0.0000 H       1  UNL1        0.0265
     58 H          17.1899    1.2250    0.0000 H       1  UNL1        0.0265
     59 H          12.7908    1.2250    0.0000 H       1  UNL1        0.0265
     60 H          11.9938    1.2250    0.0000 H       1  UNL1        0.0265
     61 H          23.2521   -0.2249    0.0000 H       1  UNL1        0.0265
     62 H          24.0492   -0.2249    0.0000 H       1  UNL1        0.0265
     63 H           5.9316   -0.2249    0.0000 H       1  UNL1        0.0265
     64 H           6.7287   -0.2249    0.0000 H       1  UNL1        0.0265
     65 H          16.3239   -0.2249    0.0000 H       1  UNL1        0.0269
     66 H          17.1210   -0.2249    0.0000 H       1  UNL1        0.0269
     67 H          12.8598   -0.2249    0.0000 H       1  UNL1        0.0269
     68 H          13.6569   -0.2249    0.0000 H       1  UNL1        0.0269
     69 H          24.9152    1.2250    0.0000 H       1  UNL1        0.0265
     70 H          24.1181    1.2250    0.0000 H       1  UNL1        0.0265
     71 H           5.8626    1.2250    0.0000 H       1  UNL1        0.0265
     72 H           5.0656    1.2250    0.0000 H       1  UNL1        0.0265
     73 H          16.2549    1.2250    0.0000 H       1  UNL1        0.0342
     74 H          15.4579    1.2250    0.0000 H       1  UNL1        0.0342
     75 H          14.5229    1.2250    0.0000 H       1  UNL1        0.0342
     76 H          13.7258    1.2250    0.0000 H       1  UNL1        0.0342
     77 H          24.9842   -0.2249    0.0000 H       1  UNL1        0.0265
     78 H          25.7812   -0.2249    0.0000 H       1  UNL1        0.0265
     79 H           4.1996   -0.2249    0.0000 H       1  UNL1        0.0265
     80 H           4.9966   -0.2249    0.0000 H       1  UNL1        0.0265
     81 H          26.6472    1.2250    0.0000 H       1  UNL1        0.0265
     82 H          25.8502    1.2250    0.0000 H       1  UNL1        0.0265
     83 H           4.1306    1.2250    0.0000 H       1  UNL1        0.0265
     84 H           3.3335    1.2250    0.0000 H       1  UNL1        0.0265
     85 H          26.7162   -0.2249    0.0000 H       1  UNL1        0.0263
     86 H          27.5133   -0.2249    0.0000 H       1  UNL1        0.0263
     87 H           2.4675   -0.2249    0.0000 H       1  UNL1        0.0263
     88 H           3.2646   -0.2249    0.0000 H       1  UNL1        0.0263
     89 H          28.2908    0.2131    0.0000 H       1  UNL1        0.0230
     90 H          28.5177    1.0600    0.0000 H       1  UNL1        0.0230
     91 H          27.6708    1.2869    0.0000 H       1  UNL1        0.0230
     92 H           2.3100    1.2869    0.0000 H       1  UNL1        0.0230
     93 H           1.4631    1.0600    0.0000 H       1  UNL1        0.0230
     94 H           1.6900    0.2131    0.0000 H       1  UNL1        0.0230
@<TRIPOS>BOND
     1     1    26    2
     2     2     4    1
     3     2     6    1
     4     2    33    1
     5     2    34    1
     6     3     5    1
     7     3     7    1
     8     3    35    1
     9     3    36    1
    10     4     8    1
    11     4    37    1
    12     4    38    1
    13     5     9    1
    14     5    39    1
    15     5    40    1
    16     6    10    1
    17     6    41    1
    18     6    42    1
    19     7    11    1
    20     7    43    1
    21     7    44    1
    22     8    12    1
    23     8    45    1
    24     8    46    1
    25     9    13    1
    26     9    47    1
    27     9    48    1
    28    10    14    1
    29    10    49    1
    30    10    50    1
    31    11    15    1
    32    11    51    1
    33    11    52    1
    34    12    16    1
    35    12    53    1
    36    12    54    1
    37    13    17    1
    38    13    55    1
    39    13    56    1
    40    14    18    1
    41    14    57    1
    42    14    58    1
    43    15    19    1
    44    15    59    1
    45    15    60    1
    46    16    20    1
    47    16    61    1
    48    16    62    1
    49    17    21    1
    50    17    63    1
    51    17    64    1
    52    18    22    1
    53    18    65    1
    54    18    66    1
    55    19    23    1
    56    19    67    1
    57    19    68    1
    58    20    24    1
    59    20    69    1
    60    20    70    1
    61    21    25    1
    62    21    71    1
    63    21    72    1
    64    22    26    1
    65    22    73    1
    66    22    74    1
    67    23    26    1
    68    23    75    1
    69    23    76    1
    70    24    27    1
    71    24    77    1
    72    24    78    1
    73    25    28    1
    74    25    79    1
    75    25    80    1
    76    27    29    1
    77    27    81    1
    78    27    82    1
    79    28    30    1
    80    28    83    1
    81    28    84    1
    82    29    31    1
    83    29    85    1
    84    29    86    1
    85    30    32    1
    86    30    87    1
    87    30    88    1
    88    31    89    1
    89    31    90    1
    90    31    91    1
    91    32    92    1
    92    32    93    1
    93    32    94    1
