@<TRIPOS>MOLECULE
IMPHY001034
 40 44 0 0 0
SMALL
GASTEIGER

@<TRIPOS>ATOM
      1 O           8.6480    1.5705    0.0000 O.2     1  UNL1       -0.2699
      2 N           6.9654    1.0205    0.0000 N.am    1  UNL1       -0.2732
      3 N           6.6028   -0.7181    0.0000 N.pl3   1  UNL1       -0.3089
      4 N           4.5124   -0.0969    0.0000 N.ar    1  UNL1       -0.3549
      5 C           6.2962    0.2774    0.0000 C.3     1  UNL1        0.1339
      6 C           5.3181    0.4853    0.0000 C.ar    1  UNL1        0.0594
      7 C           5.0091    1.4363    0.0000 C.ar    1  UNL1       -0.0142
      8 C           6.6564    1.9716    0.0000 C.3     1  UNL1        0.0211
      9 C           5.6782    2.1795    0.0000 C.3     1  UNL1       -0.0094
     10 C           4.0150    1.4338    0.0000 C.ar    1  UNL1        0.0033
     11 C           7.9875    0.8197    0.0000 C.2     1  UNL1        0.2501
     12 C           7.6200   -0.9426    0.0000 C.ar    1  UNL1        0.0433
     13 C           3.7086    0.4881    0.0000 C.ar    1  UNL1        0.0470
     14 C           8.3170   -0.1685    0.0000 C.ar    1  UNL1        0.0580
     15 C           5.9251   -1.4535    0.0000 C.3     1  UNL1        0.0028
     16 C           3.3334    2.2132    0.0000 C.ar    1  UNL1       -0.0523
     17 C           7.9393   -1.9795    0.0000 C.ar    1  UNL1       -0.0399
     18 C           2.6994    0.2563    0.0000 C.ar    1  UNL1       -0.0378
     19 C           9.3816   -0.3777    0.0000 C.ar    1  UNL1       -0.0478
     20 C           2.3191    2.0049    0.0000 C.ar    1  UNL1       -0.0611
     21 C           2.0000    1.0198    0.0000 C.ar    1  UNL1       -0.0598
     22 C           8.9988   -2.2132    0.0000 C.ar    1  UNL1       -0.0600
     23 C           9.7248   -1.4069    0.0000 C.ar    1  UNL1       -0.0609
     24 H           5.7226   -0.3499    0.0000 H       1  UNL1        0.0778
     25 H           7.2703    2.0578    0.0000 H       1  UNL1        0.0468
     26 H           6.6780    2.5912    0.0000 H       1  UNL1        0.0468
     27 H           5.9105    2.7543    0.0000 H       1  UNL1        0.0329
     28 H           5.1524    2.5080    0.0000 H       1  UNL1        0.0329
     29 H           4.5113   -0.7169    0.0000 H       1  UNL1        0.1657
     30 H           5.4692   -1.0333    0.0000 H       1  UNL1        0.0428
     31 H           5.5050   -1.9094    0.0000 H       1  UNL1        0.0428
     32 H           6.3810   -1.8736    0.0000 H       1  UNL1        0.0428
     33 H           3.5313    2.8008    0.0000 H       1  UNL1        0.0624
     34 H           7.5192   -2.4354    0.0000 H       1  UNL1        0.0636
     35 H           2.5152   -0.3357    0.0000 H       1  UNL1        0.0638
     36 H           9.7911    0.0879    0.0000 H       1  UNL1        0.0626
     37 H           1.9056    2.4669    0.0000 H       1  UNL1        0.0618
     38 H           1.3942    0.8881    0.0000 H       1  UNL1        0.0618
     39 H           9.1881   -2.8036    0.0000 H       1  UNL1        0.0618
     40 H          10.3318   -1.5335    0.0000 H       1  UNL1        0.0618
@<TRIPOS>BOND
     1     1    11    2
     2     2     5    1
     3     2     8    1
     4     2    11   am
     5     3     5    1
     6     3    12    1
     7     3    15    1
     8     4     6   ar
     9     4    13   ar
    10     4    29    1
    11     5     6    1
    12     5    24    1
    13     6     7   ar
    14     7     9    1
    15     7    10   ar
    16     8     9    1
    17     8    25    1
    18     8    26    1
    19     9    27    1
    20     9    28    1
    21    10    13   ar
    22    10    16   ar
    23    11    14    1
    24    12    14   ar
    25    12    17   ar
    26    13    18   ar
    27    14    19   ar
    28    15    30    1
    29    15    31    1
    30    15    32    1
    31    16    20   ar
    32    16    33    1
    33    17    22   ar
    34    17    34    1
    35    18    21   ar
    36    18    35    1
    37    19    23   ar
    38    19    36    1
    39    20    21   ar
    40    20    37    1
    41    21    38    1
    42    22    23   ar
    43    22    39    1
    44    23    40    1
