@<TRIPOS>MOLECULE
IMPHY005410
 50 52 0 0 0
SMALL
GASTEIGER

@<TRIPOS>ATOM
      1 O           2.8660    0.1751    0.0000 O.3     1  UNL1       -0.4907
      2 O           2.8660   -1.8048    0.0000 O.3     1  UNL1       -0.4885
      3 O           4.5806   -2.7947    0.0000 O.3     1  UNL1       -0.5030
      4 O           6.2502    1.1530    0.0000 O.2     1  UNL1       -0.2974
      5 O           2.8660    1.1349    0.0000 O.3     1  UNL1       -0.5062
      6 C           7.1265   -1.3048    0.0000 C.3     1  UNL1       -0.0486
      7 C           6.2779   -1.7947    0.0000 C.3     1  UNL1       -0.0241
      8 C           7.1265   -0.3249    0.0000 C.3     1  UNL1       -0.0461
      9 C           5.4293   -1.3048    0.0000 C.ar    1  UNL1       -0.0015
     10 C           7.8034    0.6223    0.0000 C.3     1  UNL1        0.0058
     11 C           4.5806    0.1651    0.0000 C.ar    1  UNL1        0.0314
     12 C           7.1265    2.6148    0.0000 C.3     1  UNL1        0.0098
     13 C           6.2779    3.1047    0.0000 C.3     1  UNL1       -0.0210
     14 C           5.4293   -0.3249    0.0000 C.ar    1  UNL1       -0.0435
     15 C           7.1265    1.6349    0.0000 C.2     1  UNL1        0.1337
     16 C           4.5806    1.1449    0.0000 C.ar    1  UNL1        0.0274
     17 C           5.4293    2.6148    0.0000 C.ar    1  UNL1       -0.0462
     18 C           4.5806   -1.7947    0.0000 C.ar    1  UNL1        0.1654
     19 C           3.7320   -0.3249    0.0000 C.ar    1  UNL1        0.1730
     20 C           5.4293    1.6349    0.0000 C.ar    1  UNL1       -0.0472
     21 C           3.7320   -1.3048    0.0000 C.ar    1  UNL1        0.2042
     22 C           3.7320    1.6349    0.0000 C.ar    1  UNL1        0.1247
     23 C           4.5806    3.1047    0.0000 C.ar    1  UNL1       -0.0551
     24 C           3.7320    2.6148    0.0000 C.ar    1  UNL1       -0.0193
     25 C           2.0000   -0.3249    0.0000 C.3     1  UNL1        0.0790
     26 C           2.8660   -2.8048    0.0000 C.3     1  UNL1        0.0791
     27 H           7.3385   -1.8874    0.0000 H       1  UNL1        0.0269
     28 H           7.7370   -1.1971    0.0000 H       1  UNL1        0.0269
     29 H           5.8793   -2.2697    0.0000 H       1  UNL1        0.0314
     30 H           6.6764   -2.2697    0.0000 H       1  UNL1        0.0314
     31 H           6.7594    0.1748    0.0000 H       1  UNL1        0.0269
     32 H           7.7169   -0.5142    0.0000 H       1  UNL1        0.0269
     33 H           8.2609    0.2039    0.0000 H       1  UNL1        0.0342
     34 H           8.2737    1.0263    0.0000 H       1  UNL1        0.0342
     35 H           7.7370    2.5071    0.0000 H       1  UNL1        0.0345
     36 H           7.3385    3.1974    0.0000 H       1  UNL1        0.0345
     37 H           6.6764    3.5797    0.0000 H       1  UNL1        0.0317
     38 H           5.8793    3.5797    0.0000 H       1  UNL1        0.0317
     39 H           5.9662   -0.0149    0.0000 H       1  UNL1        0.0629
     40 H           5.9662    1.3249    0.0000 H       1  UNL1        0.0627
     41 H           4.5806    3.7247    0.0000 H       1  UNL1        0.0621
     42 H           3.1951    2.9248    0.0000 H       1  UNL1        0.0654
     43 H           5.1176   -3.1047    0.0000 H       1  UNL1        0.2923
     44 H           2.3291    1.4449    0.0000 H       1  UNL1        0.2922
     45 H           1.6900    0.2121    0.0000 H       1  UNL1        0.0660
     46 H           1.4631   -0.6349    0.0000 H       1  UNL1        0.0660
     47 H           2.3100   -0.8618    0.0000 H       1  UNL1        0.0660
     48 H           2.2460   -2.8048    0.0000 H       1  UNL1        0.0660
     49 H           2.8660   -3.4248    0.0000 H       1  UNL1        0.0660
     50 H           3.4860   -2.8048    0.0000 H       1  UNL1        0.0660
@<TRIPOS>BOND
     1     1    19    1
     2     1    25    1
     3     2    21    1
     4     2    26    1
     5     3    18    1
     6     3    43    1
     7     4    15    2
     8     5    22    1
     9     5    44    1
    10     6     7    1
    11     6     8    1
    12     6    27    1
    13     6    28    1
    14     7     9    1
    15     7    29    1
    16     7    30    1
    17     8    10    1
    18     8    31    1
    19     8    32    1
    20     9    14   ar
    21     9    18   ar
    22    10    15    1
    23    10    33    1
    24    10    34    1
    25    11    14   ar
    26    11    16    1
    27    11    19   ar
    28    12    13    1
    29    12    15    1
    30    12    35    1
    31    12    36    1
    32    13    17    1
    33    13    37    1
    34    13    38    1
    35    14    39    1
    36    16    20   ar
    37    16    22   ar
    38    17    20   ar
    39    17    23   ar
    40    18    21   ar
    41    19    21   ar
    42    20    40    1
    43    22    24   ar
    44    23    24   ar
    45    23    41    1
    46    24    42    1
    47    25    45    1
    48    25    46    1
    49    25    47    1
    50    26    48    1
    51    26    49    1
    52    26    50    1
