@<TRIPOS>MOLECULE
IMPHY015338
 18 18 0 0 0
SMALL
GASTEIGER

@<TRIPOS>ATOM
      1 O           3.7320   -1.5000    0.0000 O.2     1  UNL1       -0.4612
      2 O           5.4641    0.5000    0.0000 O.3     1  UNL1       -0.5010
      3 O           3.7320    1.5000    0.0000 O.2     1  UNL1       -0.2838
      4 C           4.5981   -1.0000    0.0000 C.ar    1  UNL1        0.1471
      5 C           2.8660   -1.0000    0.0000 C.ar    1  UNL1        0.1060
      6 C           4.5981    0.0000    0.0000 C.ar    1  UNL1        0.2022
      7 C           2.8660    0.0000    0.0000 C.ar    1  UNL1        0.0267
      8 C           3.7320    0.5000    0.0000 C.ar    1  UNL1        0.2265
      9 C           5.4641   -1.5000    0.0000 C.3     1  UNL1       -0.0026
     10 C           2.0000   -1.5000    0.0000 C.3     1  UNL1       -0.0062
     11 H           2.3291    0.3100    0.0000 H       1  UNL1        0.0690
     12 H           5.1541   -2.0369    0.0000 H       1  UNL1        0.0309
     13 H           6.0010   -1.8100    0.0000 H       1  UNL1        0.0309
     14 H           5.7741   -0.9631    0.0000 H       1  UNL1        0.0309
     15 H           1.6900   -0.9631    0.0000 H       1  UNL1        0.0308
     16 H           1.4631   -1.8100    0.0000 H       1  UNL1        0.0308
     17 H           2.3100   -2.0369    0.0000 H       1  UNL1        0.0308
     18 H           6.0010    0.1900    0.0000 H       1  UNL1        0.2924
@<TRIPOS>BOND
     1     1     4   ar
     2     1     5   ar
     3     2     6    1
     4     2    18    1
     5     3     8    2
     6     4     6   ar
     7     4     9    1
     8     5     7   ar
     9     5    10    1
    10     6     8   ar
    11     7     8   ar
    12     7    11    1
    13     9    12    1
    14     9    13    1
    15     9    14    1
    16    10    15    1
    17    10    16    1
    18    10    17    1
