@<TRIPOS>MOLECULE
IMPHY002538
 50 52 0 0 0
SMALL
GASTEIGER

@<TRIPOS>ATOM
      1 O           6.3580   -0.2847    0.0000 O.3     1  UNL1       -0.4826
      2 O           4.5981    2.7500    0.0000 O.3     1  UNL1       -0.4942
      3 O           2.8660   -0.2500    0.0000 O.3     1  UNL1       -0.4946
      4 O           6.3465    2.7846    0.0000 O.2     1  UNL1       -0.2917
      5 C           7.2641    0.2292    0.0000 C.3     1  UNL1        0.1322
      6 C           7.2641    1.2708    0.0000 C.3     1  UNL1        0.0520
      7 C           5.4641    0.2500    0.0000 C.ar    1  UNL1        0.1423
      8 C           5.4641    1.2500    0.0000 C.ar    1  UNL1        0.1012
      9 C           4.5981   -0.2500    0.0000 C.ar    1  UNL1        0.0405
     10 C           6.3580    1.7847    0.0000 C.2     1  UNL1        0.1740
     11 C           8.1282   -0.2742    0.0000 C.ar    1  UNL1       -0.0069
     12 C           4.5981    1.7500    0.0000 C.ar    1  UNL1        0.1376
     13 C           4.5981   -1.2500    0.0000 C.3     1  UNL1       -0.0023
     14 C           3.7320    0.2500    0.0000 C.ar    1  UNL1        0.1305
     15 C           3.7320    1.2500    0.0000 C.ar    1  UNL1        0.0230
     16 C           8.1244   -1.2741    0.0000 C.ar    1  UNL1       -0.0551
     17 C           8.9962    0.2225    0.0000 C.ar    1  UNL1       -0.0551
     18 C           3.7320   -1.7500    0.0000 C.2     1  UNL1       -0.0807
     19 C           8.9884   -1.7775    0.0000 C.ar    1  UNL1       -0.0614
     20 C           9.8602   -0.2808    0.0000 C.ar    1  UNL1       -0.0614
     21 C           3.7320   -2.7500    0.0000 C.2     1  UNL1       -0.0793
     22 C           9.8564   -1.2808    0.0000 C.ar    1  UNL1       -0.0617
     23 C           3.7320    3.2500    0.0000 C.3     1  UNL1        0.0788
     24 C           2.0000    0.2500    0.0000 C.3     1  UNL1        0.0788
     25 C           2.8660   -3.2500    0.0000 C.3     1  UNL1       -0.0440
     26 C           4.5981   -3.2500    0.0000 C.3     1  UNL1       -0.0440
     27 H           7.2605   -0.3908    0.0000 H       1  UNL1        0.0789
     28 H           7.8750    1.1647    0.0000 H       1  UNL1        0.0385
     29 H           7.4732    1.8545    0.0000 H       1  UNL1        0.0385
     30 H           4.8101   -1.8326    0.0000 H       1  UNL1        0.0358
     31 H           5.2087   -1.1423    0.0000 H       1  UNL1        0.0358
     32 H           3.1951    1.5600    0.0000 H       1  UNL1        0.0691
     33 H           7.5862   -1.5821    0.0000 H       1  UNL1        0.0621
     34 H           8.9985    0.8425    0.0000 H       1  UNL1        0.0621
     35 H           3.1951   -1.4400    0.0000 H       1  UNL1        0.0575
     36 H           8.9860   -2.3975    0.0000 H       1  UNL1        0.0618
     37 H          10.3984    0.0271    0.0000 H       1  UNL1        0.0618
     38 H          10.3921   -1.5929    0.0000 H       1  UNL1        0.0618
     39 H           4.0420    3.7869    0.0000 H       1  UNL1        0.0660
     40 H           3.1951    3.5600    0.0000 H       1  UNL1        0.0660
     41 H           3.4220    2.7131    0.0000 H       1  UNL1        0.0660
     42 H           2.3100    0.7869    0.0000 H       1  UNL1        0.0660
     43 H           1.4631    0.5600    0.0000 H       1  UNL1        0.0660
     44 H           1.6900   -0.2869    0.0000 H       1  UNL1        0.0660
     45 H           4.2881   -3.7869    0.0000 H       1  UNL1        0.0274
     46 H           5.1350   -3.5600    0.0000 H       1  UNL1        0.0274
     47 H           4.9081   -2.7131    0.0000 H       1  UNL1        0.0274
     48 H           2.5560   -2.7131    0.0000 H       1  UNL1        0.0274
     49 H           2.3291   -3.5600    0.0000 H       1  UNL1        0.0274
     50 H           3.1760   -3.7869    0.0000 H       1  UNL1        0.0274
@<TRIPOS>BOND
     1     1     5    1
     2     1     7    1
     3     2    12    1
     4     2    23    1
     5     3    14    1
     6     3    24    1
     7     4    10    2
     8     5     6    1
     9     5    11    1
    10     5    27    1
    11     6    10    1
    12     6    28    1
    13     6    29    1
    14     7     8   ar
    15     7     9   ar
    16     8    10    1
    17     8    12   ar
    18     9    13    1
    19     9    14   ar
    20    11    16   ar
    21    11    17   ar
    22    12    15   ar
    23    13    18    1
    24    13    30    1
    25    13    31    1
    26    14    15   ar
    27    15    32    1
    28    16    19   ar
    29    16    33    1
    30    17    20   ar
    31    17    34    1
    32    18    21    2
    33    18    35    1
    34    19    22   ar
    35    19    36    1
    36    20    22   ar
    37    20    37    1
    38    21    25    1
    39    21    26    1
    40    22    38    1
    41    23    39    1
    42    23    40    1
    43    23    41    1
    44    24    42    1
    45    24    43    1
    46    24    44    1
    47    25    48    1
    48    25    49    1
    49    25    50    1
    50    26    45    1
    51    26    46    1
    52    26    47    1
