@<TRIPOS>MOLECULE
IMPHY002156
 52 56 0 0 0
SMALL
GASTEIGER

@<TRIPOS>ATOM
      1 O           2.0000   -2.6328    0.0000 O.2     1  UNL1       -0.2879
      2 N           8.1862    2.0586    0.0000 N.3     1  UNL1       -0.3127
      3 C           7.3931    0.4195    0.0000 C.3     1  UNL1       -0.0094
      4 C           7.3931   -0.5805    0.0000 C.3     1  UNL1       -0.0308
      5 C           8.3393    0.7243    0.0000 C.3     1  UNL1       -0.0188
      6 C           6.5271   -1.0804    0.0000 C.3     1  UNL1       -0.0335
      7 C           5.6610   -0.5805    0.0000 C.3     1  UNL1       -0.0253
      8 C           6.5271    0.9195    0.0000 C.3     1  UNL1       -0.0454
      9 C           8.3393   -0.8852    0.0000 C.3     1  UNL1       -0.0491
     10 C           8.9229   -0.0805    0.0000 C.3     1  UNL1       -0.0480
     11 C           7.2949    1.4028    0.0000 C.3     1  UNL1        0.0024
     12 C           5.6610    0.4195    0.0000 C.3     1  UNL1       -0.0483
     13 C           8.8334    1.5801    0.0000 C.3     1  UNL1        0.0082
     14 C           4.7510   -1.0873    0.0000 C.3     1  UNL1        0.0108
     15 C           6.5431   -2.1220    0.0000 C.3     1  UNL1       -0.0459
     16 C           5.6451   -2.6497    0.0000 C.3     1  UNL1       -0.0302
     17 C           4.7430   -2.1289    0.0000 C.2     1  UNL1       -0.0560
     18 C           9.7847    1.8883    0.0000 C.3     1  UNL1       -0.0494
     19 C           4.7587   -0.0873    0.0000 C.3     1  UNL1       -0.0521
     20 C           3.8242   -0.5232    0.0000 C.2     1  UNL1       -0.0702
     21 C           3.8076   -2.6786    0.0000 C.2     1  UNL1       -0.0149
     22 C           2.8763   -1.0512    0.0000 C.2     1  UNL1       -0.0180
     23 C           2.8680   -2.1361    0.0000 C.2     1  UNL1        0.1787
     24 H           7.4830   -1.4257    0.0000 H       1  UNL1        0.0309
     25 H           9.1882    0.7684    0.0000 H       1  UNL1        0.0322
     26 H           7.2664   -1.4998    0.0000 H       1  UNL1        0.0307
     27 H           6.3972   -0.1555    0.0000 H       1  UNL1        0.0315
     28 H           6.9256    1.3945    0.0000 H       1  UNL1        0.0271
     29 H           6.1285    1.3945    0.0000 H       1  UNL1        0.0271
     30 H           8.0883   -1.4521    0.0000 H       1  UNL1        0.0268
     31 H           8.8767   -1.1944    0.0000 H       1  UNL1        0.0268
     32 H           9.3838   -0.4952    0.0000 H       1  UNL1        0.0269
     33 H           9.3838    0.3343    0.0000 H       1  UNL1        0.0269
     34 H           7.0218    1.9595    0.0000 H       1  UNL1        0.0430
     35 H           6.6987    1.2328    0.0000 H       1  UNL1        0.0430
     36 H           5.4490    1.0022    0.0000 H       1  UNL1        0.0269
     37 H           5.0504    0.3119    0.0000 H       1  UNL1        0.0269
     38 H           8.9332    2.1920    0.0000 H       1  UNL1        0.0460
     39 H           6.7612   -2.7024    0.0000 H       1  UNL1        0.0271
     40 H           7.1523   -2.0065    0.0000 H       1  UNL1        0.0271
     41 H           8.1878    2.6786    0.0000 H       1  UNL1        0.1222
     42 H           5.2478   -3.1257    0.0000 H       1  UNL1        0.0310
     43 H           6.0460   -3.1226    0.0000 H       1  UNL1        0.0310
     44 H           9.9758    1.2985    0.0000 H       1  UNL1        0.0245
     45 H          10.3745    2.0793    0.0000 H       1  UNL1        0.0245
     46 H           9.5936    2.4781    0.0000 H       1  UNL1        0.0245
     47 H           5.3787   -0.0921    0.0000 H       1  UNL1        0.0241
     48 H           4.7635    0.5327    0.0000 H       1  UNL1        0.0241
     49 H           4.1388   -0.0825    0.0000 H       1  UNL1        0.0241
     50 H           3.8361    0.0967    0.0000 H       1  UNL1        0.0582
     51 H           3.8100   -3.2986    0.0000 H       1  UNL1        0.0655
     52 H           2.3430   -0.7350    0.0000 H       1  UNL1        0.0653
@<TRIPOS>BOND
     1     1    23    2
     2     2    11    1
     3     2    13    1
     4     2    41    1
     5     3     4    1
     6     3     5    1
     7     3     8    1
     8     3    11    1
     9     4     6    1
    10     4     9    1
    11     4    24    1
    12     5    10    1
    13     5    13    1
    14     5    25    1
    15     6     7    1
    16     6    15    1
    17     6    26    1
    18     7    12    1
    19     7    14    1
    20     7    27    1
    21     8    12    1
    22     8    28    1
    23     8    29    1
    24     9    10    1
    25     9    30    1
    26     9    31    1
    27    10    32    1
    28    10    33    1
    29    11    34    1
    30    11    35    1
    31    12    36    1
    32    12    37    1
    33    13    18    1
    34    13    38    1
    35    14    17    1
    36    14    19    1
    37    14    20    1
    38    15    16    1
    39    15    39    1
    40    15    40    1
    41    16    17    1
    42    16    42    1
    43    16    43    1
    44    17    21    2
    45    18    44    1
    46    18    45    1
    47    18    46    1
    48    19    47    1
    49    19    48    1
    50    19    49    1
    51    20    22    2
    52    20    50    1
    53    21    23    1
    54    21    51    1
    55    22    23    1
    56    22    52    1
