@<TRIPOS>MOLECULE
IMPHY009001
 35 36 0 0 0
SMALL
GASTEIGER

@<TRIPOS>ATOM
      1 O           8.0901   -1.3797    0.0000 O.2     1  UNL1       -0.4595
      2 O           6.3301    1.6550    0.0000 O.3     1  UNL1       -0.5055
      3 O           4.5981   -1.3450    0.0000 O.3     1  UNL1       -0.5062
      4 O           8.0785    1.6896    0.0000 O.2     1  UNL1       -0.2869
      5 C           5.4641    0.1550    0.0000 C.ar    1  UNL1        0.0400
      6 C           7.1962    0.1550    0.0000 C.ar    1  UNL1        0.1057
      7 C           4.5981    0.6550    0.0000 C.3     1  UNL1       -0.0023
      8 C           6.3301    0.6550    0.0000 C.ar    1  UNL1        0.1381
      9 C           7.1962   -0.8450    0.0000 C.ar    1  UNL1        0.1457
     10 C           5.4641   -0.8450    0.0000 C.ar    1  UNL1        0.1273
     11 C           6.3301   -1.3450    0.0000 C.ar    1  UNL1        0.0234
     12 C           8.0901    0.6897    0.0000 C.ar    1  UNL1        0.1963
     13 C           3.7320    0.1550    0.0000 C.2     1  UNL1       -0.0807
     14 C           8.9962   -0.8658    0.0000 C.ar    1  UNL1        0.1062
     15 C           8.9962    0.1758    0.0000 C.ar    1  UNL1        0.0237
     16 C           2.8660    0.6550    0.0000 C.2     1  UNL1       -0.0793
     17 C           9.8602   -1.3692    0.0000 C.3     1  UNL1       -0.0062
     18 C           2.0000    0.1550    0.0000 C.3     1  UNL1       -0.0440
     19 C           2.8660    1.6550    0.0000 C.3     1  UNL1       -0.0440
     20 H           4.9966    1.1300    0.0000 H       1  UNL1        0.0358
     21 H           4.1996    1.1300    0.0000 H       1  UNL1        0.0358
     22 H           6.3301   -1.9650    0.0000 H       1  UNL1        0.0691
     23 H           3.7320   -0.4650    0.0000 H       1  UNL1        0.0575
     24 H           9.5319    0.4879    0.0000 H       1  UNL1        0.0689
     25 H           9.5482   -1.9049    0.0000 H       1  UNL1        0.0308
     26 H          10.3960   -1.6812    0.0000 H       1  UNL1        0.0308
     27 H          10.1723   -0.8334    0.0000 H       1  UNL1        0.0308
     28 H           5.7932    1.9650    0.0000 H       1  UNL1        0.2922
     29 H           1.6900    0.6919    0.0000 H       1  UNL1        0.0274
     30 H           1.4631   -0.1550    0.0000 H       1  UNL1        0.0274
     31 H           2.3100   -0.3819    0.0000 H       1  UNL1        0.0274
     32 H           3.4860    1.6550    0.0000 H       1  UNL1        0.0274
     33 H           2.8660    2.2750    0.0000 H       1  UNL1        0.0274
     34 H           2.2460    1.6550    0.0000 H       1  UNL1        0.0274
     35 H           4.5981   -1.9650    0.0000 H       1  UNL1        0.2921
@<TRIPOS>BOND
     1     1     9   ar
     2     1    14   ar
     3     2     8    1
     4     2    28    1
     5     3    10    1
     6     3    35    1
     7     4    12    2
     8     5     7    1
     9     5     8   ar
    10     5    10   ar
    11     6     8   ar
    12     6     9   ar
    13     6    12   ar
    14     7    13    1
    15     7    20    1
    16     7    21    1
    17     9    11   ar
    18    10    11   ar
    19    11    22    1
    20    12    15   ar
    21    13    16    2
    22    13    23    1
    23    14    15   ar
    24    14    17    1
    25    15    24    1
    26    16    18    1
    27    16    19    1
    28    17    25    1
    29    17    26    1
    30    17    27    1
    31    18    29    1
    32    18    30    1
    33    18    31    1
    34    19    32    1
    35    19    33    1
    36    19    34    1
