@<TRIPOS>MOLECULE
IMPHY007829
 31 33 0 0 0
SMALL
GASTEIGER

@<TRIPOS>ATOM
      1 O           7.8167    1.8592    0.0000 O.3     1  UNL1       -0.5060
      2 O           6.0682    1.8246    0.0000 O.2     1  UNL1       -0.2864
      3 O           6.0682   -2.1754    0.0000 O.2     1  UNL1       -0.2866
      4 O           4.3198    1.8592    0.0000 O.3     1  UNL1       -0.5059
      5 O           2.5381   -1.1995    0.0000 O.3     1  UNL1       -0.5066
      6 O          10.4663   -0.7029    0.0000 O.3     1  UNL1       -0.3904
      7 C           6.9343   -0.6754    0.0000 C.ar    1  UNL1        0.0369
      8 C           6.9343    0.3246    0.0000 C.ar    1  UNL1        0.0745
      9 C           5.2022    0.3246    0.0000 C.ar    1  UNL1        0.0748
     10 C           5.2022   -0.6754    0.0000 C.ar    1  UNL1        0.0400
     11 C           6.0682    0.8246    0.0000 C.2     1  UNL1        0.2015
     12 C           6.0682   -1.1754    0.0000 C.2     1  UNL1        0.1949
     13 C           7.8282   -1.2100    0.0000 C.ar    1  UNL1       -0.0446
     14 C           7.8282    0.8593    0.0000 C.ar    1  UNL1        0.1287
     15 C           8.7343   -0.6962    0.0000 C.ar    1  UNL1       -0.0180
     16 C           4.3083    0.8593    0.0000 C.ar    1  UNL1        0.1318
     17 C           8.7343    0.3454    0.0000 C.ar    1  UNL1       -0.0141
     18 C           4.3083   -1.2100    0.0000 C.ar    1  UNL1       -0.0084
     19 C           3.4022   -0.6962    0.0000 C.ar    1  UNL1        0.1210
     20 C           3.4022    0.3454    0.0000 C.ar    1  UNL1        0.0221
     21 C           9.5984   -1.1995    0.0000 C.3     1  UNL1        0.0694
     22 H           7.8210   -1.8300    0.0000 H       1  UNL1        0.0628
     23 H           9.2700    0.6575    0.0000 H       1  UNL1        0.0658
     24 H           4.3154   -1.8300    0.0000 H       1  UNL1        0.0661
     25 H           2.8665    0.6575    0.0000 H       1  UNL1        0.0691
     26 H           9.1980   -1.6730    0.0000 H       1  UNL1        0.0607
     27 H           9.9951   -1.6760    0.0000 H       1  UNL1        0.0607
     28 H           8.3500    2.1754    0.0000 H       1  UNL1        0.2922
     29 H           3.7865    2.1754    0.0000 H       1  UNL1        0.2922
     30 H           2.0000   -0.8916    0.0000 H       1  UNL1        0.2921
     31 H          11.0021   -1.0150    0.0000 H       1  UNL1        0.2098
@<TRIPOS>BOND
     1     1    14    1
     2     1    28    1
     3     2    11    2
     4     3    12    2
     5     4    16    1
     6     4    29    1
     7     5    19    1
     8     5    30    1
     9     6    21    1
    10     6    31    1
    11     7     8   ar
    12     7    12    1
    13     7    13   ar
    14     8    11    1
    15     8    14   ar
    16     9    10   ar
    17     9    11    1
    18     9    16   ar
    19    10    12    1
    20    10    18   ar
    21    13    15   ar
    22    13    22    1
    23    14    17   ar
    24    15    17   ar
    25    15    21    1
    26    16    20   ar
    27    17    23    1
    28    18    19   ar
    29    18    24    1
    30    19    20   ar
    31    20    25    1
    32    21    26    1
    33    21    27    1
