@<TRIPOS>MOLECULE
IMPHY011309
 110 116 0 0 0
SMALL
GASTEIGER

@<TRIPOS>ATOM
      1 O          14.8541    0.9837    0.0000 O.3     1  UNL1       -0.3876
      2 O          17.3782   -0.5260    0.0000 O.3     1  UNL1       -0.4608
      3 O           9.4651    2.0569    0.0000 O.3     1  UNL1       -0.3480
      4 O          16.0950   -3.8944    0.0000 O.3     1  UNL1       -0.4571
      5 O           7.7331    2.0569    0.0000 O.3     1  UNL1       -0.3456
      6 O          17.3848    1.2060    0.0000 O.2     1  UNL1       -0.2512
      7 O          17.8545   -4.1769    0.0000 O.2     1  UNL1       -0.2456
      8 O           7.7331   -0.9431    0.0000 O.3     1  UNL1       -0.3770
      9 O           6.0010    0.0569    0.0000 O.3     1  UNL1       -0.3403
     10 O           5.1350    1.5569    0.0000 O.3     1  UNL1       -0.3405
     11 O           4.2690   -0.9431    0.0000 O.3     1  UNL1       -0.3841
     12 O           2.5369    0.0569    0.0000 O.3     1  UNL1       -0.3864
     13 O           2.5369    2.0569    0.0000 O.3     1  UNL1       -0.3865
     14 O           5.1350    3.5569    0.0000 O.3     1  UNL1       -0.3924
     15 C          14.8503   -0.0162    0.0000 C.3     1  UNL1        0.0785
     16 C          13.9862    0.4871    0.0000 C.3     1  UNL1       -0.0081
     17 C          14.8464   -1.0162    0.0000 C.3     1  UNL1        0.0071
     18 C          13.1182   -0.0096    0.0000 C.3     1  UNL1       -0.0299
     19 C          12.2102    0.5008    0.0000 C.3     1  UNL1       -0.0259
     20 C          12.2062    1.5424    0.0000 C.3     1  UNL1       -0.0330
     21 C          15.7915   -1.3246    0.0000 C.3     1  UNL1        0.0290
     22 C          13.9785   -1.5129    0.0000 C.3     1  UNL1       -0.0441
     23 C          13.1144   -1.0096    0.0000 C.3     1  UNL1       -0.0488
     24 C          15.7977    0.2848    0.0000 C.3     1  UNL1        0.0147
     25 C          14.0063    1.5285    0.0000 C.3     1  UNL1       -0.0470
     26 C          16.3782   -0.5221    0.0000 C.3     1  UNL1        0.1128
     27 C          13.1103    2.0597    0.0000 C.3     1  UNL1       -0.0493
     28 C          11.2812   -0.0597    0.0000 C.3     1  UNL1       -0.0448
     29 C          14.8426   -2.0162    0.0000 C.3     1  UNL1       -0.0563
     30 C          11.2729    2.0957    0.0000 C.3     1  UNL1       -0.0232
     31 C          12.2140   -0.4992    0.0000 C.3     1  UNL1       -0.0590
     32 C          10.3353    0.4719    0.0000 C.3     1  UNL1       -0.0260
     33 C          10.3312    1.5569    0.0000 C.3     1  UNL1        0.0620
     34 C          16.0985   -2.2763    0.0000 C.2     1  UNL1       -0.0187
     35 C          15.5090   -3.0841    0.0000 C.3     1  UNL1        0.1148
     36 C          17.0489   -2.5874    0.0000 C.2     1  UNL1        0.0253
     37 C          17.8815    0.3381    0.0000 C.2     1  UNL1        0.3042
     38 C          17.0467   -3.5874    0.0000 C.2     1  UNL1        0.3323
     39 C           8.5991    1.5569    0.0000 C.3     1  UNL1        0.1624
     40 C           8.5991    0.5569    0.0000 C.3     1  UNL1        0.0272
     41 C          18.8815    0.3342    0.0000 C.3     1  UNL1        0.0332
     42 C           7.7331    0.0569    0.0000 C.3     1  UNL1        0.0915
     43 C           6.8671    1.5569    0.0000 C.3     1  UNL1        0.0875
     44 C           6.8671    0.5569    0.0000 C.3     1  UNL1        0.1138
     45 C           6.0010    2.0569    0.0000 C.3     1  UNL1       -0.0361
     46 C           5.1350    0.5569    0.0000 C.3     1  UNL1        0.1884
     47 C           8.5991   -1.4431    0.0000 C.3     1  UNL1        0.0369
     48 C           4.2690    0.0569    0.0000 C.3     1  UNL1        0.1341
     49 C           3.4030    0.5569    0.0000 C.3     1  UNL1        0.1141
     50 C           4.2690    2.0569    0.0000 C.3     1  UNL1        0.1130
     51 C           3.4030    1.5569    0.0000 C.3     1  UNL1        0.1119
     52 C           4.2690    3.0569    0.0000 C.3     1  UNL1        0.0730
     53 H          14.7272    0.9036    0.0000 H       1  UNL1        0.0331
     54 H          13.8527   -0.4374    0.0000 H       1  UNL1        0.0310
     55 H          12.2127    2.3924    0.0000 H       1  UNL1        0.0307
     56 H          16.4036   -1.4232    0.0000 H       1  UNL1        0.0389
     57 H          13.5781   -1.9863    0.0000 H       1  UNL1        0.0272
     58 H          14.3752   -1.9894    0.0000 H       1  UNL1        0.0272
     59 H          12.5042   -0.8995    0.0000 H       1  UNL1        0.0268
     60 H          12.9001   -1.5914    0.0000 H       1  UNL1        0.0268
     61 H          16.3362    0.5920    0.0000 H       1  UNL1        0.0329
     62 H          15.5488    0.8527    0.0000 H       1  UNL1        0.0329
     63 H          14.6150    1.4107    0.0000 H       1  UNL1        0.0269
     64 H          14.2265    2.1081    0.0000 H       1  UNL1        0.0269
     65 H          16.6620    0.0291    0.0000 H       1  UNL1        0.0741
     66 H          13.5130    2.5311    0.0000 H       1  UNL1        0.0268
     67 H          12.7148    2.5372    0.0000 H       1  UNL1        0.0268
     68 H          10.8894   -0.5403    0.0000 H       1  UNL1        0.0271
     69 H          11.6876   -0.5279    0.0000 H       1  UNL1        0.0271
     70 H          14.2226   -2.0138    0.0000 H       1  UNL1        0.0236
     71 H          14.8402   -2.6362    0.0000 H       1  UNL1        0.0236
     72 H          15.4626   -2.0186    0.0000 H       1  UNL1        0.0236
     73 H          11.6757    2.5671    0.0000 H       1  UNL1        0.0293
     74 H          10.8774    2.5732    0.0000 H       1  UNL1        0.0293
     75 H          11.5941   -0.5016    0.0000 H       1  UNL1        0.0235
     76 H          12.2164   -1.1192    0.0000 H       1  UNL1        0.0235
     77 H          12.8340   -0.4968    0.0000 H       1  UNL1        0.0235
     78 H           9.7241    0.5756    0.0000 H       1  UNL1        0.0290
     79 H          10.1285   -0.1126    0.0000 H       1  UNL1        0.0290
     80 H           9.7948    1.2458    0.0000 H       1  UNL1        0.0597
     81 H          15.3923    1.2917    0.0000 H       1  UNL1        0.2102
     82 H          15.0491   -2.6682    0.0000 H       1  UNL1        0.0746
     83 H          15.0473   -3.4980    0.0000 H       1  UNL1        0.0746
     84 H          17.5512   -2.2240    0.0000 H       1  UNL1        0.0690
     85 H           8.5991    2.1769    0.0000 H       1  UNL1        0.0910
     86 H           8.8112   -0.0257    0.0000 H       1  UNL1        0.0340
     87 H           9.2097    0.6645    0.0000 H       1  UNL1        0.0340
     88 H          18.8791   -0.2857    0.0000 H       1  UNL1        0.0342
     89 H          19.5015    0.3319    0.0000 H       1  UNL1        0.0342
     90 H          18.8839    0.9542    0.0000 H       1  UNL1        0.0342
     91 H           8.2700   -0.2531    0.0000 H       1  UNL1        0.0624
     92 H           6.8671    2.1769    0.0000 H       1  UNL1        0.0621
     93 H           6.3301    0.8669    0.0000 H       1  UNL1        0.0649
     94 H           6.3110    2.5938    0.0000 H       1  UNL1        0.0255
     95 H           5.4641    2.3669    0.0000 H       1  UNL1        0.0255
     96 H           5.6910    1.5199    0.0000 H       1  UNL1        0.0255
     97 H           5.1350   -0.0631    0.0000 H       1  UNL1        0.0938
     98 H           8.2891   -1.9801    0.0000 H       1  UNL1        0.0524
     99 H           9.1360   -1.7531    0.0000 H       1  UNL1        0.0524
    100 H           8.9091   -0.9062    0.0000 H       1  UNL1        0.0524
    101 H           3.7320   -0.2531    0.0000 H       1  UNL1        0.0671
    102 H           2.8660    0.8669    0.0000 H       1  UNL1        0.0648
    103 H           4.8059    2.3669    0.0000 H       1  UNL1        0.0647
    104 H           3.4030    2.1769    0.0000 H       1  UNL1        0.0647
    105 H           3.7320   -1.2531    0.0000 H       1  UNL1        0.2101
    106 H           4.0569    3.6395    0.0000 H       1  UNL1        0.0584
    107 H           3.6584    2.9492    0.0000 H       1  UNL1        0.0584
    108 H           2.0000    0.3669    0.0000 H       1  UNL1        0.2100
    109 H           2.5369    2.6769    0.0000 H       1  UNL1        0.2100
    110 H           5.1350    4.1769    0.0000 H       1  UNL1        0.2095
@<TRIPOS>BOND
     1    15     1    1
     2     1    81    1
     3     2    26    1
     4     2    37    1
     5    33     3    1
     6    39     3    1
     7     4    35    1
     8     4    38    1
     9     5    39    1
    10     5    43    1
    11     6    37    2
    12     7    38    2
    13    42     8    1
    14     8    47    1
    15    44     9    1
    16    46     9    1
    17    10    46    1
    18    10    50    1
    19    48    11    1
    20    11   105    1
    21    49    12    1
    22    12   108    1
    23    51    13    1
    24    13   109    1
    25    14    52    1
    26    14   110    1
    27    15    16    1
    28    15    17    1
    29    15    24    1
    30    16    18    1
    31    16    25    1
    32    16    53    1
    33    17    21    1
    34    17    22    1
    35    17    29    1
    36    18    19    1
    37    18    23    1
    38    18    54    1
    39    19    20    1
    40    19    28    1
    41    19    31    1
    42    20    27    1
    43    20    30    1
    44    20    55    1
    45    21    26    1
    46    21    34    1
    47    21    56    1
    48    22    23    1
    49    22    57    1
    50    22    58    1
    51    23    59    1
    52    23    60    1
    53    24    26    1
    54    24    61    1
    55    24    62    1
    56    25    27    1
    57    25    63    1
    58    25    64    1
    59    26    65    1
    60    27    66    1
    61    27    67    1
    62    28    32    1
    63    28    68    1
    64    28    69    1
    65    29    70    1
    66    29    71    1
    67    29    72    1
    68    30    33    1
    69    30    73    1
    70    30    74    1
    71    31    75    1
    72    31    76    1
    73    31    77    1
    74    32    33    1
    75    32    78    1
    76    32    79    1
    77    33    80    1
    78    34    35    1
    79    34    36    2
    80    35    82    1
    81    35    83    1
    82    36    38    1
    83    36    84    1
    84    37    41    1
    85    39    40    1
    86    39    85    1
    87    40    42    1
    88    40    86    1
    89    40    87    1
    90    41    88    1
    91    41    89    1
    92    41    90    1
    93    42    44    1
    94    42    91    1
    95    43    44    1
    96    43    45    1
    97    43    92    1
    98    44    93    1
    99    45    94    1
   100    45    95    1
   101    45    96    1
   102    46    48    1
   103    46    97    1
   104    47    98    1
   105    47    99    1
   106    47   100    1
   107    48    49    1
   108    48   101    1
   109    49    51    1
   110    49   102    1
   111    50    51    1
   112    50    52    1
   113    50   103    1
   114    51   104    1
   115    52   106    1
   116    52   107    1
