@<TRIPOS>MOLECULE
IMPHY015886
 67 66 0 0 0
SMALL
GASTEIGER

@<TRIPOS>ATOM
      1 O           6.3301   -2.2500    0.0000 O.3     1  UNL1       -0.4646
      2 O           7.1962   -3.7500    0.0000 O.2     1  UNL1       -0.2509
      3 C          10.6603   -2.7500    0.0000 C.3     1  UNL1       -0.0530
      4 C           9.7942   -2.2500    0.0000 C.3     1  UNL1       -0.0526
      5 C          11.5263   -2.2500    0.0000 C.3     1  UNL1       -0.0528
      6 C          12.3923   -2.7500    0.0000 C.3     1  UNL1       -0.0496
      7 C           8.9282   -2.7500    0.0000 C.3     1  UNL1       -0.0430
      8 C          13.2583   -2.2500    0.0000 C.3     1  UNL1       -0.0348
      9 C           8.0622   -2.2500    0.0000 C.3     1  UNL1        0.0449
     10 C          14.1244   -2.7500    0.0000 C.2     1  UNL1       -0.0876
     11 C           7.1962   -2.7500    0.0000 C.2     1  UNL1        0.3071
     12 C           4.5981   -2.2500    0.0000 C.3     1  UNL1       -0.0185
     13 C          14.9904    1.7500    0.0000 C.3     1  UNL1       -0.0496
     14 C           3.7320   -2.7500    0.0000 C.3     1  UNL1       -0.0502
     15 C          14.1244    2.2500    0.0000 C.3     1  UNL1       -0.0530
     16 C           5.4641   -2.7500    0.0000 C.3     1  UNL1        0.0925
     17 C          14.9904    0.7500    0.0000 C.3     1  UNL1       -0.0348
     18 C           2.8660   -2.2500    0.0000 C.3     1  UNL1       -0.0558
     19 C          14.1244    3.2500    0.0000 C.3     1  UNL1       -0.0559
     20 C          14.9904   -2.2500    0.0000 C.2     1  UNL1       -0.0842
     21 C          14.9904   -1.2500    0.0000 C.3     1  UNL1       -0.0165
     22 C          15.8564    0.2500    0.0000 C.2     1  UNL1       -0.0876
     23 C          15.8564   -0.7500    0.0000 C.2     1  UNL1       -0.0842
     24 C           2.0000   -2.7500    0.0000 C.3     1  UNL1       -0.0653
     25 C          13.2583    3.7500    0.0000 C.3     1  UNL1       -0.0653
     26 H          10.2617   -3.2250    0.0000 H       1  UNL1        0.0265
     27 H          11.0588   -3.2250    0.0000 H       1  UNL1        0.0265
     28 H          10.1928   -1.7750    0.0000 H       1  UNL1        0.0265
     29 H           9.3957   -1.7750    0.0000 H       1  UNL1        0.0265
     30 H          11.9248   -1.7750    0.0000 H       1  UNL1        0.0265
     31 H          11.1278   -1.7750    0.0000 H       1  UNL1        0.0265
     32 H          11.9938   -3.2250    0.0000 H       1  UNL1        0.0268
     33 H          12.7908   -3.2250    0.0000 H       1  UNL1        0.0268
     34 H           8.5297   -3.2250    0.0000 H       1  UNL1        0.0270
     35 H           9.3267   -3.2250    0.0000 H       1  UNL1        0.0270
     36 H          13.6569   -1.7750    0.0000 H       1  UNL1        0.0307
     37 H          12.8598   -1.7750    0.0000 H       1  UNL1        0.0307
     38 H           8.4607   -1.7750    0.0000 H       1  UNL1        0.0377
     39 H           7.6636   -1.7750    0.0000 H       1  UNL1        0.0377
     40 H          14.1244   -3.3700    0.0000 H       1  UNL1        0.0569
     41 H           4.9966   -1.7750    0.0000 H       1  UNL1        0.0298
     42 H           4.1996   -1.7750    0.0000 H       1  UNL1        0.0298
     43 H          15.6010    1.6423    0.0000 H       1  UNL1        0.0268
     44 H          15.2024    2.3326    0.0000 H       1  UNL1        0.0268
     45 H           3.3335   -3.2250    0.0000 H       1  UNL1        0.0266
     46 H           4.1306   -3.2250    0.0000 H       1  UNL1        0.0266
     47 H          13.5138    2.3577    0.0000 H       1  UNL1        0.0265
     48 H          13.9123    1.6674    0.0000 H       1  UNL1        0.0265
     49 H           5.0656   -3.2250    0.0000 H       1  UNL1        0.0697
     50 H           5.8626   -3.2250    0.0000 H       1  UNL1        0.0697
     51 H          14.3798    0.8577    0.0000 H       1  UNL1        0.0307
     52 H          14.7783    0.1674    0.0000 H       1  UNL1        0.0307
     53 H           3.2646   -1.7750    0.0000 H       1  UNL1        0.0263
     54 H           2.4675   -1.7750    0.0000 H       1  UNL1        0.0263
     55 H          14.7349    3.1423    0.0000 H       1  UNL1        0.0263
     56 H          14.3364    3.8326    0.0000 H       1  UNL1        0.0263
     57 H          15.5273   -2.5600    0.0000 H       1  UNL1        0.0572
     58 H          14.7783   -0.6674    0.0000 H       1  UNL1        0.0350
     59 H          14.3798   -1.3577    0.0000 H       1  UNL1        0.0350
     60 H          16.3933    0.5600    0.0000 H       1  UNL1        0.0569
     61 H          16.3933   -1.0600    0.0000 H       1  UNL1        0.0572
     62 H           1.6900   -2.2131    0.0000 H       1  UNL1        0.0230
     63 H           1.4631   -3.0600    0.0000 H       1  UNL1        0.0230
     64 H           2.3100   -3.2869    0.0000 H       1  UNL1        0.0230
     65 H          13.5683    4.2869    0.0000 H       1  UNL1        0.0230
     66 H          12.7214    4.0600    0.0000 H       1  UNL1        0.0230
     67 H          12.9483    3.2131    0.0000 H       1  UNL1        0.0230
@<TRIPOS>BOND
     1     1    11    1
     2     1    16    1
     3     2    11    2
     4     3     4    1
     5     3     5    1
     6     3    26    1
     7     3    27    1
     8     4     7    1
     9     4    28    1
    10     4    29    1
    11     5     6    1
    12     5    30    1
    13     5    31    1
    14     6     8    1
    15     6    32    1
    16     6    33    1
    17     7     9    1
    18     7    34    1
    19     7    35    1
    20     8    10    1
    21     8    36    1
    22     8    37    1
    23     9    11    1
    24     9    38    1
    25     9    39    1
    26    10    20    2
    27    10    40    1
    28    12    14    1
    29    12    16    1
    30    12    41    1
    31    12    42    1
    32    13    15    1
    33    13    17    1
    34    13    43    1
    35    13    44    1
    36    14    18    1
    37    14    45    1
    38    14    46    1
    39    15    19    1
    40    15    47    1
    41    15    48    1
    42    16    49    1
    43    16    50    1
    44    17    22    1
    45    17    51    1
    46    17    52    1
    47    18    24    1
    48    18    53    1
    49    18    54    1
    50    19    25    1
    51    19    55    1
    52    19    56    1
    53    20    21    1
    54    20    57    1
    55    21    23    1
    56    21    58    1
    57    21    59    1
    58    22    23    2
    59    22    60    1
    60    23    61    1
    61    24    62    1
    62    24    63    1
    63    24    64    1
    64    25    65    1
    65    25    66    1
    66    25    67    1
