@<TRIPOS>MOLECULE
IMPHY008051
 45 47 0 0 0
SMALL
GASTEIGER

@<TRIPOS>ATOM
      1 O           6.0682    0.0272    0.0000 O.3     1  UNL1       -0.4826
      2 O           6.0682    3.0272    0.0000 O.2     1  UNL1       -0.2918
      3 O           2.5381    0.0031    0.0000 O.3     1  UNL1       -0.5064
      4 O           6.9343   -1.4728    0.0000 O.3     1  UNL1       -0.5063
      5 O          10.3984   -1.4728    0.0000 O.3     1  UNL1       -0.5066
      6 C           6.9343    0.5272    0.0000 C.3     1  UNL1        0.1355
      7 C           6.9343    1.5272    0.0000 C.3     1  UNL1        0.0520
      8 C           5.2022    0.5272    0.0000 C.ar    1  UNL1        0.1388
      9 C           5.2022    1.5272    0.0000 C.ar    1  UNL1        0.0597
     10 C           6.0682    2.0272    0.0000 C.2     1  UNL1        0.1705
     11 C           7.8003    0.0272    0.0000 C.ar    1  UNL1        0.0347
     12 C           4.3083   -0.0074    0.0000 C.ar    1  UNL1        0.0400
     13 C           4.3198   -1.0074    0.0000 C.3     1  UNL1       -0.0023
     14 C           4.3083    2.0619    0.0000 C.ar    1  UNL1       -0.0443
     15 C           3.4022    0.5064    0.0000 C.ar    1  UNL1        0.1238
     16 C           7.8003   -0.9728    0.0000 C.ar    1  UNL1        0.1270
     17 C           3.4022    1.5481    0.0000 C.ar    1  UNL1       -0.0190
     18 C           8.6663    0.5272    0.0000 C.ar    1  UNL1       -0.0481
     19 C           3.4597   -1.5173    0.0000 C.2     1  UNL1       -0.0807
     20 C           8.6663   -1.4728    0.0000 C.ar    1  UNL1        0.0217
     21 C           9.5323    0.0272    0.0000 C.ar    1  UNL1       -0.0196
     22 C           9.5323   -0.9728    0.0000 C.ar    1  UNL1        0.1203
     23 C           3.4712   -2.5173    0.0000 C.2     1  UNL1       -0.0793
     24 C           2.6110   -3.0272    0.0000 C.3     1  UNL1       -0.0440
     25 C           4.3430   -3.0072    0.0000 C.3     1  UNL1       -0.0440
     26 H           6.9343   -0.3228    0.0000 H       1  UNL1        0.0790
     27 H           7.5449    1.4196    0.0000 H       1  UNL1        0.0385
     28 H           7.1463    2.1098    0.0000 H       1  UNL1        0.0385
     29 H           4.5386   -1.5875    0.0000 H       1  UNL1        0.0358
     30 H           4.9291   -0.8926    0.0000 H       1  UNL1        0.0358
     31 H           4.3154    2.6819    0.0000 H       1  UNL1        0.0627
     32 H           2.8665    1.8601    0.0000 H       1  UNL1        0.0654
     33 H           8.6663    1.1472    0.0000 H       1  UNL1        0.0624
     34 H           2.9192   -1.2136    0.0000 H       1  UNL1        0.0575
     35 H           8.6663   -2.0928    0.0000 H       1  UNL1        0.0691
     36 H          10.0693    0.3372    0.0000 H       1  UNL1        0.0654
     37 H           2.0000    0.3110    0.0000 H       1  UNL1        0.2921
     38 H           6.9343   -2.0928    0.0000 H       1  UNL1        0.2921
     39 H           4.0392   -3.5477    0.0000 H       1  UNL1        0.0274
     40 H           4.8835   -3.3110    0.0000 H       1  UNL1        0.0274
     41 H           4.6468   -2.4667    0.0000 H       1  UNL1        0.0274
     42 H           2.2948   -2.4939    0.0000 H       1  UNL1        0.0274
     43 H           2.0777   -3.3434    0.0000 H       1  UNL1        0.0274
     44 H           2.9272   -3.5606    0.0000 H       1  UNL1        0.0274
     45 H          10.9353   -1.1628    0.0000 H       1  UNL1        0.2921
@<TRIPOS>BOND
     1     1     6    1
     2     1     8    1
     3     2    10    2
     4     3    15    1
     5     3    37    1
     6     4    16    1
     7     4    38    1
     8     5    22    1
     9     5    45    1
    10     6     7    1
    11     6    11    1
    12     6    26    1
    13     7    10    1
    14     7    27    1
    15     7    28    1
    16     8     9   ar
    17     8    12   ar
    18     9    10    1
    19     9    14   ar
    20    11    16   ar
    21    11    18   ar
    22    12    13    1
    23    12    15   ar
    24    13    19    1
    25    13    29    1
    26    13    30    1
    27    14    17   ar
    28    14    31    1
    29    15    17   ar
    30    16    20   ar
    31    17    32    1
    32    18    21   ar
    33    18    33    1
    34    19    23    2
    35    19    34    1
    36    20    22   ar
    37    20    35    1
    38    21    22   ar
    39    21    36    1
    40    23    24    1
    41    23    25    1
    42    24    42    1
    43    24    43    1
    44    24    44    1
    45    25    39    1
    46    25    40    1
    47    25    41    1
