@<TRIPOS>MOLECULE
IMPHY014803
 43 44 0 0 0
SMALL
GASTEIGER

@<TRIPOS>ATOM
      1 O           4.8660    0.5771    0.0000 O.3     1  UNL1       -0.3649
      2 O           4.0000    3.0770    0.0000 O.3     1  UNL1       -0.3890
      3 C           4.0000    0.0771    0.0000 C.3     1  UNL1        0.0707
      4 C           3.5000   -0.7890    0.0000 C.3     1  UNL1       -0.0084
      5 C           3.1340    0.5771    0.0000 C.3     1  UNL1       -0.0213
      6 C           4.8660    1.5770    0.0000 C.3     1  UNL1        0.0904
      7 C           3.1340    1.5770    0.0000 C.3     1  UNL1       -0.0216
      8 C           4.0000    2.0770    0.0000 C.3     1  UNL1        0.0837
      9 C           2.5000   -0.7890    0.0000 C.3     1  UNL1       -0.0436
     10 C           4.0000   -1.6550    0.0000 C.3     1  UNL1       -0.0291
     11 C           4.5000   -0.7890    0.0000 C.3     1  UNL1       -0.0355
     12 C           2.0000   -1.6550    0.0000 C.3     1  UNL1       -0.0317
     13 C           5.3660    2.4431    0.0000 C.3     1  UNL1       -0.0336
     14 C           5.8660    1.5770    0.0000 C.3     1  UNL1       -0.0336
     15 C           3.5000   -2.5210    0.0000 C.2     1  UNL1       -0.0847
     16 C           2.5000   -2.5210    0.0000 C.2     1  UNL1       -0.0765
     17 C           2.0000   -3.3870    0.0000 C.3     1  UNL1       -0.0438
     18 H           3.1900   -0.2520    0.0000 H       1  UNL1        0.0331
     19 H           2.5234    0.6847    0.0000 H       1  UNL1        0.0294
     20 H           2.9219   -0.0056    0.0000 H       1  UNL1        0.0294
     21 H           2.9219    2.1597    0.0000 H       1  UNL1        0.0292
     22 H           2.5234    1.4694    0.0000 H       1  UNL1        0.0292
     23 H           3.4631    2.3870    0.0000 H       1  UNL1        0.0622
     24 H           2.6077   -0.1784    0.0000 H       1  UNL1        0.0272
     25 H           1.9174   -0.5769    0.0000 H       1  UNL1        0.0272
     26 H           4.4750   -2.0535    0.0000 H       1  UNL1        0.0311
     27 H           4.4750   -1.2565    0.0000 H       1  UNL1        0.0311
     28 H           3.9631   -1.0990    0.0000 H       1  UNL1        0.0257
     29 H           4.8100   -1.3259    0.0000 H       1  UNL1        0.0257
     30 H           5.0369   -0.4790    0.0000 H       1  UNL1        0.0257
     31 H           1.5250   -1.2565    0.0000 H       1  UNL1        0.0310
     32 H           1.5250   -2.0535    0.0000 H       1  UNL1        0.0310
     33 H           5.9030    2.1331    0.0000 H       1  UNL1        0.0258
     34 H           5.6760    2.9800    0.0000 H       1  UNL1        0.0258
     35 H           4.8291    2.7531    0.0000 H       1  UNL1        0.0258
     36 H           5.8660    0.9571    0.0000 H       1  UNL1        0.0258
     37 H           6.4860    1.5770    0.0000 H       1  UNL1        0.0258
     38 H           5.8660    2.1970    0.0000 H       1  UNL1        0.0258
     39 H           3.8100   -3.0580    0.0000 H       1  UNL1        0.0572
     40 H           3.4631    3.3870    0.0000 H       1  UNL1        0.2099
     41 H           1.4631   -3.0770    0.0000 H       1  UNL1        0.0274
     42 H           1.6900   -3.9240    0.0000 H       1  UNL1        0.0274
     43 H           2.5369   -3.6970    0.0000 H       1  UNL1        0.0274
@<TRIPOS>BOND
     1     1     3    1
     2     1     6    1
     3     2     8    1
     4     2    40    1
     5     3     4    1
     6     3     5    1
     7     3    11    1
     8     4     9    1
     9     4    10    1
    10     4    18    1
    11     5     7    1
    12     5    19    1
    13     5    20    1
    14     6     8    1
    15     6    13    1
    16     6    14    1
    17     7     8    1
    18     7    21    1
    19     7    22    1
    20     8    23    1
    21     9    12    1
    22     9    24    1
    23     9    25    1
    24    10    15    1
    25    10    26    1
    26    10    27    1
    27    11    28    1
    28    11    29    1
    29    11    30    1
    30    12    16    1
    31    12    31    1
    32    12    32    1
    33    13    33    1
    34    13    34    1
    35    13    35    1
    36    14    36    1
    37    14    37    1
    38    14    38    1
    39    15    16    2
    40    15    39    1
    41    16    17    1
    42    17    41    1
    43    17    42    1
    44    17    43    1
