@<TRIPOS>MOLECULE
IMPHY005748
 83 87 0 0 0
SMALL
GASTEIGER

@<TRIPOS>ATOM
      1 O           4.8824    0.0840    0.0000 O.3     1  UNL1       -0.3831
      2 O          11.1246    2.7352    0.0000 O.3     1  UNL1       -0.3887
      3 O           9.3052    3.7671    0.0000 O.3     1  UNL1       -0.3892
      4 O           3.9891   -3.4509    0.0000 O.3     1  UNL1       -0.4802
      5 O           5.7211   -3.4642    0.0000 O.2     1  UNL1       -0.2503
      6 C           7.5167   -0.4091    0.0000 C.3     1  UNL1       -0.0193
      7 C           7.5167    0.5909    0.0000 C.3     1  UNL1       -0.0257
      8 C           8.4106    1.1255    0.0000 C.3     1  UNL1       -0.0226
      9 C           6.6507   -0.9091    0.0000 C.3     1  UNL1       -0.0027
     10 C           9.3167    0.6117    0.0000 C.3     1  UNL1       -0.0277
     11 C           8.4106   -0.9438    0.0000 C.3     1  UNL1       -0.0463
     12 C           5.7847   -0.4091    0.0000 C.2     1  UNL1       -0.0348
     13 C           9.3167   -0.4300    0.0000 C.3     1  UNL1       -0.0486
     14 C          10.2605    1.1469    0.0000 C.3     1  UNL1       -0.0032
     15 C           4.8746   -0.9160    0.0000 C.3     1  UNL1        0.1037
     16 C           6.6507    1.0909    0.0000 C.3     1  UNL1       -0.0305
     17 C           6.6667   -1.9506    0.0000 C.3     1  UNL1       -0.0422
     18 C           8.3856    2.2102    0.0000 C.3     1  UNL1       -0.0184
     19 C           4.8666   -1.9576    0.0000 C.3     1  UNL1        0.1000
     20 C           5.7687   -2.4784    0.0000 C.3     1  UNL1       -0.0334
     21 C           7.8588   -1.3488    0.0000 C.3     1  UNL1       -0.0585
     22 C          10.2605    2.2319    0.0000 C.3     1  UNL1        0.0864
     23 C           5.7847    0.5909    0.0000 C.2     1  UNL1       -0.0812
     24 C           7.5408    1.6188    0.0000 C.3     1  UNL1       -0.0589
     25 C           9.3167    2.7671    0.0000 C.3     1  UNL1        0.0821
     26 C           7.2935   -1.6752    0.0000 C.3     1  UNL1       -0.0552
     27 C           3.9478   -0.3519    0.0000 C.3     1  UNL1       -0.0139
     28 C           3.9312   -2.5073    0.0000 C.3     1  UNL1       -0.0337
     29 C           2.9999   -0.8799    0.0000 C.3     1  UNL1       -0.0319
     30 C           2.9916   -1.9648    0.0000 C.3     1  UNL1       -0.0467
     31 C          11.2605    1.1431    0.0000 C.3     1  UNL1       -0.0571
     32 C          10.7572    0.2790    0.0000 C.3     1  UNL1       -0.0571
     33 C           4.8589   -2.9576    0.0000 C.2     1  UNL1        0.3140
     34 C           2.0000   -0.8683    0.0000 C.3     1  UNL1       -0.0597
     35 C           2.5100   -0.0081    0.0000 C.3     1  UNL1       -0.0597
     36 H           8.2561    0.1715    0.0000 H       1  UNL1        0.0315
     37 H          10.0512    0.1838    0.0000 H       1  UNL1        0.0312
     38 H           8.0060   -1.4136    0.0000 H       1  UNL1        0.0271
     39 H           8.8043   -1.4228    0.0000 H       1  UNL1        0.0271
     40 H           9.5258   -1.0136    0.0000 H       1  UNL1        0.0268
     41 H           9.9276   -0.3239    0.0000 H       1  UNL1        0.0268
     42 H           7.0492    1.5658    0.0000 H       1  UNL1        0.0310
     43 H           6.2522    1.5658    0.0000 H       1  UNL1        0.0310
     44 H           6.8848   -2.5310    0.0000 H       1  UNL1        0.0274
     45 H           7.2759   -1.8352    0.0000 H       1  UNL1        0.0274
     46 H           8.1631    2.7889    0.0000 H       1  UNL1        0.0296
     47 H           7.7773    2.0900    0.0000 H       1  UNL1        0.0296
     48 H           5.3714   -2.9544    0.0000 H       1  UNL1        0.0277
     49 H           6.1697   -2.9513    0.0000 H       1  UNL1        0.0277
     50 H           7.2762   -1.5609    0.0000 H       1  UNL1        0.0235
     51 H           8.0709   -1.9314    0.0000 H       1  UNL1        0.0235
     52 H           8.4414   -1.1367    0.0000 H       1  UNL1        0.0235
     53 H          10.7980    1.9229    0.0000 H       1  UNL1        0.0624
     54 H           5.2477    0.9009    0.0000 H       1  UNL1        0.0573
     55 H           7.8466    2.1581    0.0000 H       1  UNL1        0.0235
     56 H           7.0015    1.9247    0.0000 H       1  UNL1        0.0235
     57 H           7.2349    1.0795    0.0000 H       1  UNL1        0.0235
     58 H           9.8506    3.0823    0.0000 H       1  UNL1        0.0619
     59 H           6.8185   -2.0737    0.0000 H       1  UNL1        0.0238
     60 H           7.6920   -2.1501    0.0000 H       1  UNL1        0.0238
     61 H           7.7684   -1.2767    0.0000 H       1  UNL1        0.0238
     62 H           4.3560    0.1147    0.0000 H       1  UNL1        0.0302
     63 H           3.5579    0.1301    0.0000 H       1  UNL1        0.0302
     64 H           3.5339   -2.9833    0.0000 H       1  UNL1        0.0277
     65 H           4.3322   -2.9802    0.0000 H       1  UNL1        0.0277
     66 H           2.3816   -1.8540    0.0000 H       1  UNL1        0.0271
     67 H           2.7780   -2.5469    0.0000 H       1  UNL1        0.0271
     68 H          10.2190   -0.0290    0.0000 H       1  UNL1        0.0236
     69 H          11.0651   -0.2592    0.0000 H       1  UNL1        0.0236
     70 H          11.2953    0.5869    0.0000 H       1  UNL1        0.0236
     71 H          11.2581    0.5231    0.0000 H       1  UNL1        0.0236
     72 H          11.8805    1.1407    0.0000 H       1  UNL1        0.0236
     73 H          11.2629    1.7630    0.0000 H       1  UNL1        0.0236
     74 H           4.3478    0.3981    0.0000 H       1  UNL1        0.2106
     75 H           3.0505    0.2957    0.0000 H       1  UNL1        0.0235
     76 H           2.2062    0.5324    0.0000 H       1  UNL1        0.0235
     77 H           1.9695   -0.3119    0.0000 H       1  UNL1        0.0235
     78 H           2.0072   -0.2483    0.0000 H       1  UNL1        0.0235
     79 H           1.3800   -0.8611    0.0000 H       1  UNL1        0.0235
     80 H           1.9928   -1.4882    0.0000 H       1  UNL1        0.0235
     81 H          11.1222    3.3552    0.0000 H       1  UNL1        0.2099
     82 H           8.7647    4.0708    0.0000 H       1  UNL1        0.2099
     83 H           3.9843   -4.0708    0.0000 H       1  UNL1        0.2951
@<TRIPOS>BOND
     1    15     1    1
     2     1    74    1
     3    22     2    1
     4     2    81    1
     5    25     3    1
     6     3    82    1
     7     4    33    1
     8     4    83    1
     9     5    33    2
    10     6     7    1
    11     6     9    1
    12     6    11    1
    13     6    21    1
    14     7     8    1
    15     7    16    1
    16     7    36    1
    17     8    10    1
    18     8    18    1
    19     8    24    1
    20     9    12    1
    21     9    17    1
    22     9    26    1
    23    10    13    1
    24    10    14    1
    25    10    37    1
    26    11    13    1
    27    11    38    1
    28    11    39    1
    29    12    15    1
    30    12    23    2
    31    13    40    1
    32    13    41    1
    33    14    22    1
    34    14    31    1
    35    14    32    1
    36    15    19    1
    37    15    27    1
    38    16    23    1
    39    16    42    1
    40    16    43    1
    41    17    20    1
    42    17    44    1
    43    17    45    1
    44    18    25    1
    45    18    46    1
    46    18    47    1
    47    19    20    1
    48    19    28    1
    49    19    33    1
    50    20    48    1
    51    20    49    1
    52    21    50    1
    53    21    51    1
    54    21    52    1
    55    22    25    1
    56    22    53    1
    57    23    54    1
    58    24    55    1
    59    24    56    1
    60    24    57    1
    61    25    58    1
    62    26    59    1
    63    26    60    1
    64    26    61    1
    65    27    29    1
    66    27    62    1
    67    27    63    1
    68    28    30    1
    69    28    64    1
    70    28    65    1
    71    29    30    1
    72    29    34    1
    73    29    35    1
    74    30    66    1
    75    30    67    1
    76    31    71    1
    77    31    72    1
    78    31    73    1
    79    32    68    1
    80    32    69    1
    81    32    70    1
    82    34    78    1
    83    34    79    1
    84    34    80    1
    85    35    75    1
    86    35    76    1
    87    35    77    1
