@<TRIPOS>MOLECULE
IMPHY013437
 54 57 0 0 0
SMALL
GASTEIGER

@<TRIPOS>ATOM
      1 O           4.2690   -1.2857    0.0000 O.3     1  UNL1       -0.3339
      2 O           6.0010   -1.2857    0.0000 O.3     1  UNL1       -0.4532
      3 O           4.2690   -4.2857    0.0000 O.3     1  UNL1       -0.3864
      4 O           2.5369   -3.2857    0.0000 O.3     1  UNL1       -0.3866
      5 O           6.0010   -3.2857    0.0000 O.3     1  UNL1       -0.3829
      6 O           6.8671    1.2143    0.0000 O.2     1  UNL1       -0.4507
      7 O           4.2690   -0.2857    0.0000 O.2     1  UNL1       -0.2830
      8 O           3.3648    1.2112    0.0000 O.3     1  UNL1       -0.5058
      9 O           5.1229    4.2836    0.0000 O.3     1  UNL1       -0.5065
     10 O          10.3312   -1.7857    0.0000 O.3     1  UNL1       -0.4951
     11 C           4.2690   -3.2857    0.0000 C.3     1  UNL1        0.1151
     12 C           3.4030   -2.7857    0.0000 C.3     1  UNL1        0.1096
     13 C           5.1350   -2.7857    0.0000 C.3     1  UNL1        0.1454
     14 C           3.4030   -1.7857    0.0000 C.3     1  UNL1        0.0883
     15 C           5.1350   -1.7857    0.0000 C.3     1  UNL1        0.2311
     16 C           2.5369   -1.2857    0.0000 C.3     1  UNL1       -0.0360
     17 C           6.0010   -0.2857    0.0000 C.ar    1  UNL1        0.2138
     18 C           6.8671    0.2143    0.0000 C.ar    1  UNL1        0.1809
     19 C           5.1350    0.2143    0.0000 C.ar    1  UNL1        0.2382
     20 C           5.1350    1.2143    0.0000 C.ar    1  UNL1        0.1092
     21 C           6.0010    1.7143    0.0000 C.ar    1  UNL1        0.1465
     22 C           7.7331   -0.2857    0.0000 C.ar    1  UNL1        0.0213
     23 C           4.2250    1.7212    0.0000 C.ar    1  UNL1        0.1348
     24 C           6.0171    2.7558    0.0000 C.ar    1  UNL1        0.0231
     25 C           7.7331   -1.2857    0.0000 C.ar    1  UNL1       -0.0475
     26 C           8.5991    0.2143    0.0000 C.ar    1  UNL1       -0.0475
     27 C           4.2170    2.7628    0.0000 C.ar    1  UNL1        0.0223
     28 C           5.1191    3.2836    0.0000 C.ar    1  UNL1        0.1239
     29 C           8.5991   -1.7857    0.0000 C.ar    1  UNL1       -0.0193
     30 C           9.4651   -0.2857    0.0000 C.ar    1  UNL1       -0.0193
     31 C           9.4651   -1.2857    0.0000 C.ar    1  UNL1        0.1201
     32 C          11.1972   -1.2857    0.0000 C.3     1  UNL1        0.0788
     33 H           3.7320   -3.5957    0.0000 H       1  UNL1        0.0648
     34 H           3.4030   -3.4057    0.0000 H       1  UNL1        0.0646
     35 H           5.1350   -3.4057    0.0000 H       1  UNL1        0.0683
     36 H           3.4030   -1.1657    0.0000 H       1  UNL1        0.0621
     37 H           5.1350   -1.1657    0.0000 H       1  UNL1        0.1084
     38 H           2.8469   -0.7487    0.0000 H       1  UNL1        0.0255
     39 H           2.0000   -0.9757    0.0000 H       1  UNL1        0.0255
     40 H           2.2269   -1.8226    0.0000 H       1  UNL1        0.0255
     41 H           3.7320   -4.5957    0.0000 H       1  UNL1        0.2100
     42 H           2.0000   -2.9757    0.0000 H       1  UNL1        0.2100
     43 H           6.0010   -3.9057    0.0000 H       1  UNL1        0.2102
     44 H           6.5576    3.0596    0.0000 H       1  UNL1        0.0691
     45 H           7.1962   -1.5957    0.0000 H       1  UNL1        0.0626
     46 H           8.5991    0.8343    0.0000 H       1  UNL1        0.0626
     47 H           3.6788    3.0707    0.0000 H       1  UNL1        0.0691
     48 H           8.5991   -2.4057    0.0000 H       1  UNL1        0.0654
     49 H          10.0021    0.0243    0.0000 H       1  UNL1        0.0654
     50 H           2.8243    1.5150    0.0000 H       1  UNL1        0.2922
     51 H           4.5872    4.5957    0.0000 H       1  UNL1        0.2921
     52 H          11.5072   -1.8226    0.0000 H       1  UNL1        0.0660
     53 H          11.7341   -0.9757    0.0000 H       1  UNL1        0.0660
     54 H          10.8872   -0.7487    0.0000 H       1  UNL1        0.0660
@<TRIPOS>BOND
     1     1    14    1
     2     1    15    1
     3    15     2    1
     4     2    17    1
     5     3    11    1
     6     3    41    1
     7    12     4    1
     8     4    42    1
     9    13     5    1
    10     5    43    1
    11     6    18   ar
    12     6    21   ar
    13     7    19    2
    14     8    23    1
    15     8    50    1
    16     9    28    1
    17     9    51    1
    18    10    31    1
    19    10    32    1
    20    11    12    1
    21    11    13    1
    22    11    33    1
    23    12    14    1
    24    12    34    1
    25    13    15    1
    26    13    35    1
    27    14    16    1
    28    14    36    1
    29    15    37    1
    30    16    38    1
    31    16    39    1
    32    16    40    1
    33    17    18   ar
    34    17    19   ar
    35    18    22    1
    36    19    20   ar
    37    20    21   ar
    38    20    23   ar
    39    21    24   ar
    40    22    25   ar
    41    22    26   ar
    42    23    27   ar
    43    24    28   ar
    44    24    44    1
    45    25    29   ar
    46    25    45    1
    47    26    30   ar
    48    26    46    1
    49    27    28   ar
    50    27    47    1
    51    29    31   ar
    52    29    48    1
    53    30    31   ar
    54    30    49    1
    55    32    52    1
    56    32    53    1
    57    32    54    1
