@<TRIPOS>MOLECULE
IMPHY016956
 33 33 0 0 0
SMALL
GASTEIGER

@<TRIPOS>ATOM
      1 O           3.7320    1.0000    0.0000 O.3     1  UNL1       -0.4639
      2 O           5.4641    1.0000    0.0000 O.2     1  UNL1       -0.2503
      3 C           4.5981    2.5000    0.0000 C.3     1  UNL1        0.0594
      4 C           4.5981    3.5000    0.0000 C.3     1  UNL1       -0.0499
      5 C           5.5981    2.5000    0.0000 C.3     1  UNL1       -0.0499
      6 C           3.5981    2.5000    0.0000 C.3     1  UNL1       -0.0499
      7 C           4.5981    1.5000    0.0000 C.2     1  UNL1        0.3125
      8 C           3.7320    0.0000    0.0000 C.3     1  UNL1        0.0964
      9 C           2.8660   -0.5000    0.0000 C.3     1  UNL1        0.0067
     10 C           2.8660   -1.5000    0.0000 C.ar    1  UNL1       -0.0442
     11 C           2.0000   -2.0000    0.0000 C.ar    1  UNL1       -0.0585
     12 C           3.7320   -2.0000    0.0000 C.ar    1  UNL1       -0.0585
     13 C           2.0000   -3.0000    0.0000 C.ar    1  UNL1       -0.0615
     14 C           3.7320   -3.0000    0.0000 C.ar    1  UNL1       -0.0615
     15 C           2.8660   -3.5000    0.0000 C.ar    1  UNL1       -0.0617
     16 H           5.2181    3.5000    0.0000 H       1  UNL1        0.0240
     17 H           4.5981    4.1200    0.0000 H       1  UNL1        0.0240
     18 H           3.9781    3.5000    0.0000 H       1  UNL1        0.0240
     19 H           5.5981    1.8800    0.0000 H       1  UNL1        0.0240
     20 H           6.2181    2.5000    0.0000 H       1  UNL1        0.0240
     21 H           5.5981    3.1200    0.0000 H       1  UNL1        0.0240
     22 H           3.5981    3.1200    0.0000 H       1  UNL1        0.0240
     23 H           2.9781    2.5000    0.0000 H       1  UNL1        0.0240
     24 H           3.5981    1.8800    0.0000 H       1  UNL1        0.0240
     25 H           3.9441   -0.5826    0.0000 H       1  UNL1        0.0701
     26 H           4.3426    0.1077    0.0000 H       1  UNL1        0.0701
     27 H           2.6540    0.0826    0.0000 H       1  UNL1        0.0346
     28 H           2.2554   -0.6077    0.0000 H       1  UNL1        0.0346
     29 H           1.4631   -1.6900    0.0000 H       1  UNL1        0.0620
     30 H           4.2690   -1.6900    0.0000 H       1  UNL1        0.0620
     31 H           1.4631   -3.3100    0.0000 H       1  UNL1        0.0618
     32 H           4.2690   -3.3100    0.0000 H       1  UNL1        0.0618
     33 H           2.8660   -4.1200    0.0000 H       1  UNL1        0.0618
@<TRIPOS>BOND
     1     1     7    1
     2     1     8    1
     3     2     7    2
     4     3     4    1
     5     3     5    1
     6     3     6    1
     7     3     7    1
     8     4    16    1
     9     4    17    1
    10     4    18    1
    11     5    19    1
    12     5    20    1
    13     5    21    1
    14     6    22    1
    15     6    23    1
    16     6    24    1
    17     8     9    1
    18     8    25    1
    19     8    26    1
    20     9    10    1
    21     9    27    1
    22     9    28    1
    23    10    11   ar
    24    10    12   ar
    25    11    13   ar
    26    11    29    1
    27    12    14   ar
    28    12    30    1
    29    13    15   ar
    30    13    31    1
    31    14    15   ar
    32    14    32    1
    33    15    33    1
