@<TRIPOS>MOLECULE
IMPHY017372
 34 33 0 0 0
SMALL
GASTEIGER

@<TRIPOS>ATOM
      1 C           9.7942   -0.2500    0.0000 C.3     1  UNL1       -0.0499
      2 C           3.7320    0.2500    0.0000 C.3     1  UNL1       -0.0499
      3 C           8.9282    0.2500    0.0000 C.3     1  UNL1       -0.0345
      4 C           4.5981   -0.2500    0.0000 C.3     1  UNL1       -0.0345
      5 C          10.6603    0.2500    0.0000 C.3     1  UNL1       -0.0556
      6 C           2.8660   -0.2500    0.0000 C.3     1  UNL1       -0.0556
      7 C           8.0622   -0.2500    0.0000 C.2     1  UNL1       -0.0840
      8 C           5.4641    0.2500    0.0000 C.2     1  UNL1       -0.0840
      9 C          11.5263   -0.2500    0.0000 C.3     1  UNL1       -0.0653
     10 C           2.0000    0.2500    0.0000 C.3     1  UNL1       -0.0653
     11 C           7.1962    0.2500    0.0000 C.2     1  UNL1       -0.0660
     12 C           6.3301   -0.2500    0.0000 C.2     1  UNL1       -0.0660
     13 H           9.3957   -0.7249    0.0000 H       1  UNL1        0.0268
     14 H          10.1928   -0.7249    0.0000 H       1  UNL1        0.0268
     15 H           4.1306    0.7249    0.0000 H       1  UNL1        0.0268
     16 H           3.3335    0.7249    0.0000 H       1  UNL1        0.0268
     17 H           9.3267    0.7249    0.0000 H       1  UNL1        0.0307
     18 H           8.5297    0.7249    0.0000 H       1  UNL1        0.0307
     19 H           4.1996   -0.7249    0.0000 H       1  UNL1        0.0307
     20 H           4.9966   -0.7249    0.0000 H       1  UNL1        0.0307
     21 H          11.0588    0.7249    0.0000 H       1  UNL1        0.0263
     22 H          10.2617    0.7249    0.0000 H       1  UNL1        0.0263
     23 H           2.4675   -0.7249    0.0000 H       1  UNL1        0.0263
     24 H           3.2646   -0.7249    0.0000 H       1  UNL1        0.0263
     25 H           8.0622   -0.8700    0.0000 H       1  UNL1        0.0572
     26 H           5.4641    0.8700    0.0000 H       1  UNL1        0.0572
     27 H          11.2163   -0.7869    0.0000 H       1  UNL1        0.0230
     28 H          12.0632   -0.5600    0.0000 H       1  UNL1        0.0230
     29 H          11.8363    0.2869    0.0000 H       1  UNL1        0.0230
     30 H           2.3100    0.7869    0.0000 H       1  UNL1        0.0230
     31 H           1.4631    0.5600    0.0000 H       1  UNL1        0.0230
     32 H           1.6900   -0.2869    0.0000 H       1  UNL1        0.0230
     33 H           7.1962    0.8700    0.0000 H       1  UNL1        0.0614
     34 H           6.3301   -0.8700    0.0000 H       1  UNL1        0.0614
@<TRIPOS>BOND
     1     1     3    1
     2     1     5    1
     3     1    13    1
     4     1    14    1
     5     2     4    1
     6     2     6    1
     7     2    15    1
     8     2    16    1
     9     3     7    1
    10     3    17    1
    11     3    18    1
    12     4     8    1
    13     4    19    1
    14     4    20    1
    15     5     9    1
    16     5    21    1
    17     5    22    1
    18     6    10    1
    19     6    23    1
    20     6    24    1
    21     7    11    2
    22     7    25    1
    23     8    12    2
    24     8    26    1
    25     9    27    1
    26     9    28    1
    27     9    29    1
    28    10    30    1
    29    10    31    1
    30    10    32    1
    31    11    12    1
    32    11    33    1
    33    12    34    1
