@<TRIPOS>MOLECULE
IMPHY010616
 40 45 0 0 0
SMALL
GASTEIGER

@<TRIPOS>ATOM
      1 N           3.3438   -4.5056    0.0000 N.ar    1  UNL1       -0.2406
      2 C           4.4631   -3.8680    0.0000 C.ar    1  UNL1        0.1047
      3 C           5.5824   -4.5056    0.0000 C.ar    1  UNL1        0.1336
      4 N           6.6876   -3.8680    0.0000 N.ar    1  UNL1       -0.2362
      5 C           6.6876   -2.5787    0.0000 C.ar    1  UNL1        0.1358
      6 C           5.5824   -1.9411    0.0000 C.ar    1  UNL1        0.1592
      7 C           4.4631   -2.5787    0.0000 C.ar    1  UNL1        0.0563
      8 C           2.2245   -2.5787    0.0000 C.ar    1  UNL1        0.0251
      9 C           2.2245   -3.8680    0.0000 C.ar    1  UNL1        0.1152
     10 C           1.1193   -4.5056    0.0000 C.ar    1  UNL1        0.1562
     11 C           0.0000   -3.8680    0.0000 C.ar    1  UNL1        0.0385
     12 C           0.0000   -2.5787    0.0000 C.ar    1  UNL1        0.0032
     13 C           1.1193   -1.9411    0.0000 C.ar    1  UNL1        0.0018
     14 C           5.5824   -5.7950    0.0000 C.2     1  UNL1        0.1924
     15 O           6.6876   -6.4326    0.0000 O.2     1  UNL1       -0.2897
     16 O           5.5824   -0.6518    0.0000 O.3     1  UNL1       -0.4698
     17 C           6.6876    0.0000    0.0000 C.3     1  UNL1        0.2525
     18 O           1.1193   -5.7950    0.0000 O.3     1  UNL1       -0.4699
     19 C           0.0000   -6.4326    0.0000 C.3     1  UNL1        0.2525
     20 C           4.4631   -6.4326    0.0000 C.3     1  UNL1        0.0790
     21 C           4.4631   -7.7361    0.0000 C.3     1  UNL1        0.0790
     22 C           3.3438   -8.3737    0.0000 C.2     1  UNL1        0.1924
     23 O           2.2245   -7.7361    0.0000 O.2     1  UNL1       -0.2897
     24 C           3.3438   -9.6630    0.0000 C.ar    1  UNL1        0.1336
     25 N           2.2245  -10.3148    0.0000 N.ar    1  UNL1       -0.2362
     26 C           2.2245  -11.6041    0.0000 C.ar    1  UNL1        0.1358
     27 C           3.3438  -12.2417    0.0000 C.ar    1  UNL1        0.1592
     28 C           4.4631  -11.6041    0.0000 C.ar    1  UNL1        0.0563
     29 C           4.4631  -10.3148    0.0000 C.ar    1  UNL1        0.1047
     30 N           5.5824   -9.6630    0.0000 N.ar    1  UNL1       -0.2406
     31 C           6.6876  -10.3148    0.0000 C.ar    1  UNL1        0.1152
     32 C           7.8069   -9.6630    0.0000 C.ar    1  UNL1        0.1562
     33 C           8.9262  -10.3148    0.0000 C.ar    1  UNL1        0.0385
     34 C           8.9262  -11.6041    0.0000 C.ar    1  UNL1        0.0032
     35 C           7.8069  -12.2417    0.0000 C.ar    1  UNL1        0.0018
     36 C           6.6876  -11.6041    0.0000 C.ar    1  UNL1        0.0251
     37 O           3.3438  -13.5310    0.0000 O.3     1  UNL1       -0.4698
     38 C           4.4631  -14.1686    0.0000 C.3     1  UNL1        0.2525
     39 O           7.8069   -8.3737    0.0000 O.3     1  UNL1       -0.4699
     40 C           8.9262   -7.7361    0.0000 C.3     1  UNL1        0.2525
@<TRIPOS>BOND
     1     1     2   ar
     2     1     9   ar
     3     2     7   ar
     4     2     3   ar
     5     3     4   ar
     6     3    14    1
     7     4     5   ar
     8     5     6   ar
     9     6     7   ar
    10     6    16    1
    11     7     8   ar
    12     8     9   ar
    13     8    13   ar
    14     9    10   ar
    15    10    11   ar
    16    10    18    1
    17    11    12   ar
    18    12    13   ar
    19    14    15    2
    20    14    20    1
    21    16    17    1
    22    18    19    1
    23    20    21    1
    24    21    22    1
    25    22    24    1
    26    22    23    2
    27    24    25   ar
    28    24    29   ar
    29    25    26   ar
    30    26    27   ar
    31    27    28   ar
    32    27    37    1
    33    28    36   ar
    34    28    29   ar
    35    29    30   ar
    36    30    31   ar
    37    31    36   ar
    38    31    32   ar
    39    32    33   ar
    40    32    39    1
    41    33    34   ar
    42    34    35   ar
    43    35    36   ar
    44    37    38    1
    45    39    40    1
