@<TRIPOS>MOLECULE
IMPHY010742
 58 62 0 0 0
SMALL
GASTEIGER

@<TRIPOS>ATOM
      1 O           5.5585   -8.0826    0.0000 O.3     1  UNL1       -0.3284
      2 C           6.6460   -8.7136    0.0000 C.3     1  UNL1        0.2695
      3 C           6.6460   -9.9757    0.0000 C.3     1  UNL1        0.2406
      4 C           5.5585  -10.6067    0.0000 C.3     1  UNL1        0.2197
      5 C           4.4575   -9.9757    0.0000 C.3     1  UNL1        0.2118
      6 C           4.4575   -8.7136    0.0000 C.3     1  UNL1        0.1508
      7 O           7.7335   -8.0826    0.0000 O.3     1  UNL1       -0.3232
      8 C           7.7469   -5.2631    0.0000 C.3     1  UNL1        0.2035
      9 C           8.8479   -4.6320    0.0000 C.3     1  UNL1        0.1826
     10 O          10.0562   -5.4242    0.0000 O.3     1  UNL1       -0.3249
     11 C          10.0562   -6.8877    0.0000 C.3     1  UNL1        0.2797
     12 O           8.9687   -7.5187    0.0000 O.3     1  UNL1       -0.3276
     13 C           8.9687   -8.7808    0.0000 C.3     1  UNL1        0.1509
     14 C          10.0562   -9.4118    0.0000 C.3     1  UNL1        0.2129
     15 C          11.1572   -8.7808    0.0000 C.3     1  UNL1        0.2293
     16 C          11.1572   -7.5187    0.0000 C.3     1  UNL1        0.2573
     17 O          12.2179   -6.8877    0.0000 O.3     1  UNL1       -0.4442
     18 C          12.2179   -4.9811    0.0000 C.2     1  UNL1        0.3171
     19 C          13.4262   -4.2427    0.0000 C.3     1  UNL1        0.1096
     20 C          13.4262   -2.6047    0.0000 C.3     1  UNL1        0.0116
     21 C          12.2179   -1.9065    0.0000 C.3     1  UNL1        0.0006
     22 C          12.2179   -0.6445    0.0000 C.3     1  UNL1        0.0000
     23 C          11.1303    0.0000    0.0000 C.3     1  UNL1        0.0000
     24 C          10.0160   -0.6310    0.0000 C.3     1  UNL1        0.0000
     25 C           8.9284    0.0000    0.0000 C.3     1  UNL1        0.0001
     26 C           7.8006   -0.6310    0.0000 C.3     1  UNL1        0.0025
     27 C           6.7131    0.0000    0.0000 C.3     1  UNL1        0.0296
     28 C           5.5853   -0.6310    0.0000 C.3     1  UNL1        0.1179
     29 O           5.5585   -2.7390    0.0000 O.3     1  UNL1       -0.3312
     30 C           4.4709   -3.3700    0.0000 C.3     1  UNL1        0.2660
     31 O           3.3700   -2.7390    0.0000 O.3     1  UNL1       -0.3284
     32 C           2.2825   -3.3700    0.0000 C.3     1  UNL1        0.1508
     33 C           2.2825   -4.6320    0.0000 C.3     1  UNL1        0.2117
     34 C           3.3700   -5.2631    0.0000 C.3     1  UNL1        0.2165
     35 C           4.4709   -4.6320    0.0000 C.3     1  UNL1        0.2066
     36 O           5.5585   -5.2631    0.0000 O.3     1  UNL1       -0.3232
     37 C           6.6594   -4.6320    0.0000 C.3     1  UNL1        0.2662
     38 O           6.6594   -3.3700    0.0000 O.3     1  UNL1       -0.3284
     39 C           7.7469   -2.7390    0.0000 C.3     1  UNL1        0.1507
     40 C           8.8479   -3.3700    0.0000 C.3     1  UNL1        0.2085
     41 O           7.7335  -10.6067    0.0000 O.3     1  UNL1       -0.2149
     42 O           5.5585  -11.8688    0.0000 O.3     1  UNL1       -0.2174
     43 O           3.3700  -10.6067    0.0000 O.3     1  UNL1       -0.2177
     44 C           3.3700   -8.0826    0.0000 C.3     1  UNL1        0.0350
     45 C           7.8678   -9.4118    0.0000 C.3     1  UNL1        0.0350
     46 O          10.0562  -10.6739    0.0000 O.3     1  UNL1       -0.2177
     47 O          12.2447   -9.4118    0.0000 O.3     1  UNL1       -0.2162
     48 O          11.1706   -4.3770    0.0000 O.2     1  UNL1       -0.2501
     49 C           4.4844    0.0000    0.0000 C.3     1  UNL1        0.0296
     50 C           3.3834   -0.6310    0.0000 C.3     1  UNL1        0.0025
     51 C           2.2422    0.0000    0.0000 C.3     1  UNL1        0.0001
     52 C           1.1144   -0.6310    0.0000 C.3     1  UNL1        0.0000
     53 C           0.0000    0.0000    0.0000 C.3     1  UNL1        0.0000
     54 C           1.1815   -2.7390    0.0000 C.3     1  UNL1        0.0350
     55 O           1.1815   -5.2631    0.0000 O.3     1  UNL1       -0.2177
     56 O           3.3700   -6.5386    0.0000 O.3     1  UNL1       -0.2175
     57 C           7.7469   -1.4769    0.0000 C.3     1  UNL1        0.0350
     58 O           9.9354   -2.7390    0.0000 O.3     1  UNL1       -0.2178
@<TRIPOS>BOND
     1     1     6    1
     2     1     2    1
     3     2     7    1
     4     2     3    1
     5     3     4    1
     6     3    41    1
     7     4     5    1
     8     4    42    1
     9     5     6    1
    10     5    43    1
    11     6    44    1
    12     8     7    1
    13     8     9    1
    14     8    37    1
    15     9    40    1
    16     9    10    1
    17    11    10    1
    18    11    16    1
    19    11    12    1
    20    12    13    1
    21    13    14    1
    22    13    45    1
    23    14    46    1
    24    14    15    1
    25    15    16    1
    26    15    47    1
    27    16    17    1
    28    17    18    1
    29    18    19    1
    30    18    48    2
    31    19    20    1
    32    20    21    1
    33    21    22    1
    34    22    23    1
    35    23    24    1
    36    24    25    1
    37    25    26    1
    38    26    27    1
    39    27    28    1
    40    28    49    1
    41    28    29    1
    42    30    29    1
    43    30    35    1
    44    30    31    1
    45    31    32    1
    46    32    33    1
    47    32    54    1
    48    33    34    1
    49    33    55    1
    50    34    35    1
    51    34    56    1
    52    35    36    1
    53    37    36    1
    54    37    38    1
    55    38    39    1
    56    39    40    1
    57    39    57    1
    58    40    58    1
    59    49    50    1
    60    50    51    1
    61    51    52    1
    62    52    53    1
