@<TRIPOS>MOLECULE
IMPHY001247
 69 69 0 0 0
SMALL
GASTEIGER

@<TRIPOS>ATOM
      1 O           4.2690   -5.0000    0.0000 O.3     1  UNL1       -0.3312
      2 O           2.5369   -7.0000    0.0000 O.3     1  UNL1       -0.3865
      3 O           4.2690   -8.0000    0.0000 O.3     1  UNL1       -0.3864
      4 O           6.0010   -7.0000    0.0000 O.3     1  UNL1       -0.3829
      5 O           6.0010   -5.0000    0.0000 O.3     1  UNL1       -0.4290
      6 O           2.5369   -4.0000    0.0000 O.3     1  UNL1       -0.3924
      7 O           5.1350   -3.5000    0.0000 O.2     1  UNL1       -0.2452
      8 O          12.9292    8.0000    0.0000 O.3     1  UNL1       -0.4773
      9 O          13.7953    6.5000    0.0000 O.2     1  UNL1       -0.2455
     10 C           3.4030   -6.5000    0.0000 C.3     1  UNL1        0.1120
     11 C           4.2690   -7.0000    0.0000 C.3     1  UNL1        0.1152
     12 C           3.4030   -5.5000    0.0000 C.3     1  UNL1        0.1140
     13 C           5.1350   -6.5000    0.0000 C.3     1  UNL1        0.1455
     14 C           5.1350   -5.5000    0.0000 C.3     1  UNL1        0.2341
     15 C           2.5369   -5.0000    0.0000 C.3     1  UNL1        0.0731
     16 C           6.0010   -4.0000    0.0000 C.2     1  UNL1        0.3371
     17 C           6.8671   -3.5000    0.0000 C.2     1  UNL1        0.0336
     18 C           7.7331   -4.0000    0.0000 C.3     1  UNL1       -0.0329
     19 C           6.8671   -2.5000    0.0000 C.2     1  UNL1       -0.0521
     20 C           7.7331   -2.0000    0.0000 C.2     1  UNL1       -0.0610
     21 C           7.7331   -1.0000    0.0000 C.2     1  UNL1       -0.0588
     22 C           8.5991   -0.5000    0.0000 C.2     1  UNL1       -0.0504
     23 C           9.4651   -1.0000    0.0000 C.3     1  UNL1       -0.0397
     24 C           8.5991    0.5000    0.0000 C.2     1  UNL1       -0.0588
     25 C           9.4651    1.0000    0.0000 C.2     1  UNL1       -0.0615
     26 C           9.4651    2.0000    0.0000 C.2     1  UNL1       -0.0615
     27 C          10.3312    3.5000    0.0000 C.2     1  UNL1       -0.0504
     28 C          10.3312    2.5000    0.0000 C.2     1  UNL1       -0.0588
     29 C          11.1972    4.0000    0.0000 C.2     1  UNL1       -0.0588
     30 C           9.4651    4.0000    0.0000 C.3     1  UNL1       -0.0397
     31 C          11.1972    5.0000    0.0000 C.2     1  UNL1       -0.0610
     32 C          12.0632    5.5000    0.0000 C.2     1  UNL1       -0.0521
     33 C          12.0632    6.5000    0.0000 C.2     1  UNL1        0.0333
     34 C          11.1972    7.0000    0.0000 C.3     1  UNL1       -0.0329
     35 C          12.9292    7.0000    0.0000 C.2     1  UNL1        0.3325
     36 H           3.4030   -7.1200    0.0000 H       1  UNL1        0.0647
     37 H           4.8059   -7.3100    0.0000 H       1  UNL1        0.0648
     38 H           3.4030   -4.8800    0.0000 H       1  UNL1        0.0647
     39 H           5.6720   -6.1900    0.0000 H       1  UNL1        0.0683
     40 H           5.1350   -4.8800    0.0000 H       1  UNL1        0.1085
     41 H           1.9264   -4.8923    0.0000 H       1  UNL1        0.0584
     42 H           2.3249   -5.5826    0.0000 H       1  UNL1        0.0584
     43 H           2.0000   -6.6900    0.0000 H       1  UNL1        0.2100
     44 H           3.7320   -8.3100    0.0000 H       1  UNL1        0.2100
     45 H           6.5380   -6.6900    0.0000 H       1  UNL1        0.2102
     46 H           2.0000   -3.6900    0.0000 H       1  UNL1        0.2095
     47 H           7.4231   -4.5369    0.0000 H       1  UNL1        0.0280
     48 H           8.2700   -4.3100    0.0000 H       1  UNL1        0.0280
     49 H           8.0431   -3.4631    0.0000 H       1  UNL1        0.0280
     50 H           6.3301   -2.1900    0.0000 H       1  UNL1        0.0622
     51 H           8.2700   -2.3100    0.0000 H       1  UNL1        0.0618
     52 H           7.1962   -0.6900    0.0000 H       1  UNL1        0.0620
     53 H           9.1551   -1.5369    0.0000 H       1  UNL1        0.0278
     54 H          10.0021   -1.3100    0.0000 H       1  UNL1        0.0278
     55 H           9.7751   -0.4631    0.0000 H       1  UNL1        0.0278
     56 H           8.0622    0.8100    0.0000 H       1  UNL1        0.0620
     57 H          10.0021    0.6900    0.0000 H       1  UNL1        0.0618
     58 H           8.9282    2.3100    0.0000 H       1  UNL1        0.0618
     59 H          10.8681    2.1900    0.0000 H       1  UNL1        0.0620
     60 H          11.7341    3.6900    0.0000 H       1  UNL1        0.0620
     61 H           9.7751    4.5369    0.0000 H       1  UNL1        0.0278
     62 H           8.9282    4.3100    0.0000 H       1  UNL1        0.0278
     63 H           9.1551    3.4631    0.0000 H       1  UNL1        0.0278
     64 H          10.6603    5.3100    0.0000 H       1  UNL1        0.0618
     65 H          12.6002    5.1900    0.0000 H       1  UNL1        0.0622
     66 H          11.5072    7.5369    0.0000 H       1  UNL1        0.0280
     67 H          10.6603    7.3100    0.0000 H       1  UNL1        0.0280
     68 H          10.8872    6.4631    0.0000 H       1  UNL1        0.0280
     69 H          13.4662    8.3100    0.0000 H       1  UNL1        0.2954
@<TRIPOS>BOND
     1     1    12    1
     2     1    14    1
     3    10     2    1
     4     2    43    1
     5    11     3    1
     6     3    44    1
     7    13     4    1
     8     4    45    1
     9    14     5    1
    10     5    16    1
    11     6    15    1
    12     6    46    1
    13     7    16    2
    14     8    35    1
    15     8    69    1
    16     9    35    2
    17    10    11    1
    18    10    12    1
    19    10    36    1
    20    11    13    1
    21    11    37    1
    22    12    15    1
    23    12    38    1
    24    13    14    1
    25    13    39    1
    26    14    40    1
    27    15    41    1
    28    15    42    1
    29    16    17    1
    30    17    18    1
    31    17    19    2
    32    18    47    1
    33    18    48    1
    34    18    49    1
    35    19    20    1
    36    19    50    1
    37    20    21    2
    38    20    51    1
    39    21    22    1
    40    21    52    1
    41    22    23    1
    42    22    24    2
    43    23    53    1
    44    23    54    1
    45    23    55    1
    46    24    25    1
    47    24    56    1
    48    25    26    2
    49    25    57    1
    50    26    28    1
    51    26    58    1
    52    27    28    2
    53    27    29    1
    54    27    30    1
    55    28    59    1
    56    29    31    2
    57    29    60    1
    58    30    61    1
    59    30    62    1
    60    30    63    1
    61    31    32    1
    62    31    64    1
    63    32    33    2
    64    32    65    1
    65    33    34    1
    66    33    35    1
    67    34    66    1
    68    34    67    1
    69    34    68    1
