@<TRIPOS>MOLECULE
IMPHY010823
 111 117 0 0 0
SMALL
GASTEIGER

@<TRIPOS>ATOM
      1 O          11.1496    2.1607    0.0000 O.3     1  UNL1       -0.3874
      2 O           9.4651   -3.2702    0.0000 O.3     1  UNL1       -0.3445
      3 O           8.7608    6.6785    0.0000 O.3     1  UNL1       -0.4571
      4 O           7.7331   -3.2702    0.0000 O.3     1  UNL1       -0.3421
      5 O           9.4651   -5.2702    0.0000 O.3     1  UNL1       -0.4537
      6 O           6.9812    6.7702    0.0000 O.2     1  UNL1       -0.2456
      7 O           7.7331   -6.2702    0.0000 O.3     1  UNL1       -0.3733
      8 O           6.0010   -5.2702    0.0000 O.3     1  UNL1       -0.3402
      9 O           5.1350   -3.7702    0.0000 O.3     1  UNL1       -0.3405
     10 O           8.5991   -6.7702    0.0000 O.2     1  UNL1       -0.2512
     11 O           4.2690   -6.2702    0.0000 O.3     1  UNL1       -0.3841
     12 O           2.5369   -5.2702    0.0000 O.3     1  UNL1       -0.3864
     13 O           2.5369   -3.2702    0.0000 O.3     1  UNL1       -0.3865
     14 O           5.1350   -1.7702    0.0000 O.3     1  UNL1       -0.3924
     15 C           9.4929    0.7989    0.0000 C.3     1  UNL1       -0.0290
     16 C          10.3609    1.2956    0.0000 C.3     1  UNL1       -0.0079
     17 C           9.4891   -0.2010    0.0000 C.3     1  UNL1       -0.0259
     18 C          10.1554    2.2682    0.0000 C.3     1  UNL1        0.0782
     19 C           9.1671    2.3751    0.0000 C.3     1  UNL1        0.0185
     20 C           8.7585    1.4689    0.0000 C.3     1  UNL1       -0.0376
     21 C          10.3532   -0.7044    0.0000 C.3     1  UNL1       -0.0330
     22 C          11.2250    0.7923    0.0000 C.3     1  UNL1       -0.0470
     23 C          11.2211   -0.2077    0.0000 C.3     1  UNL1       -0.0493
     24 C          10.7794    3.0946    0.0000 C.3     1  UNL1       -0.0221
     25 C           8.5771   -0.7044    0.0000 C.3     1  UNL1       -0.0448
     26 C           8.7342    3.3157    0.0000 C.2     1  UNL1       -0.0608
     27 C          10.3652   -1.7459    0.0000 C.3     1  UNL1       -0.0232
     28 C           8.6250    0.3023    0.0000 C.3     1  UNL1       -0.0590
     29 C           8.1729    2.4826    0.0000 C.3     1  UNL1       -0.0532
     30 C           9.3389    4.1563    0.0000 C.3     1  UNL1        0.0053
     31 C          10.3683    4.0450    0.0000 C.3     1  UNL1       -0.0400
     32 C           8.5651   -1.7459    0.0000 C.3     1  UNL1       -0.0260
     33 C           9.4651   -2.2702    0.0000 C.3     1  UNL1        0.0621
     34 C           7.7388    3.4117    0.0000 C.2     1  UNL1       -0.0983
     35 C           8.9314    5.0695    0.0000 C.2     1  UNL1       -0.0188
     36 C           9.4306    5.9359    0.0000 C.3     1  UNL1        0.1150
     37 C           8.5991   -3.7702    0.0000 C.3     1  UNL1        0.1994
     38 C           7.9530    5.2766    0.0000 C.2     1  UNL1        0.0255
     39 C           8.5991   -4.7702    0.0000 C.3     1  UNL1        0.1819
     40 C           7.8476    6.2710    0.0000 C.2     1  UNL1        0.3323
     41 C           7.7331   -5.2702    0.0000 C.3     1  UNL1        0.1285
     42 C           6.8671   -3.7702    0.0000 C.3     1  UNL1        0.0878
     43 C           6.8671   -4.7702    0.0000 C.3     1  UNL1        0.1173
     44 C           6.0010   -3.2702    0.0000 C.3     1  UNL1       -0.0360
     45 C           9.4651   -6.2702    0.0000 C.2     1  UNL1        0.3044
     46 C           5.1350   -4.7702    0.0000 C.3     1  UNL1        0.1884
     47 C           6.8671   -6.7702    0.0000 C.3     1  UNL1        0.0371
     48 C           4.2690   -5.2702    0.0000 C.3     1  UNL1        0.1341
     49 C          10.3312   -6.7702    0.0000 C.3     1  UNL1        0.0332
     50 C           3.4030   -4.7702    0.0000 C.3     1  UNL1        0.1141
     51 C           4.2690   -3.2702    0.0000 C.3     1  UNL1        0.1130
     52 C           3.4030   -3.7702    0.0000 C.3     1  UNL1        0.1119
     53 C           4.2690   -2.2702    0.0000 C.3     1  UNL1        0.0730
     54 H          10.2274    0.3711    0.0000 H       1  UNL1        0.0310
     55 H          11.0498    1.7935    0.0000 H       1  UNL1        0.0332
     56 H           8.2232    1.7817    0.0000 H       1  UNL1        0.0277
     57 H           8.3911    0.9694    0.0000 H       1  UNL1        0.0277
     58 H          11.0909   -1.1265    0.0000 H       1  UNL1        0.0307
     59 H          11.8351    0.6823    0.0000 H       1  UNL1        0.0269
     60 H          11.4393    1.3741    0.0000 H       1  UNL1        0.0269
     61 H          11.4309   -0.7911    0.0000 H       1  UNL1        0.0268
     62 H          11.8321   -0.1024    0.0000 H       1  UNL1        0.0268
     63 H          11.2029    2.6418    0.0000 H       1  UNL1        0.0293
     64 H          11.2979    3.4344    0.0000 H       1  UNL1        0.0293
     65 H           8.3748   -0.1183    0.0000 H       1  UNL1        0.0271
     66 H           7.9651   -0.8034    0.0000 H       1  UNL1        0.0271
     67 H          10.5810   -2.3272    0.0000 H       1  UNL1        0.0293
     68 H          10.9748   -1.6328    0.0000 H       1  UNL1        0.0293
     69 H           8.9370    0.8380    0.0000 H       1  UNL1        0.0235
     70 H           8.0892    0.6144    0.0000 H       1  UNL1        0.0235
     71 H           8.3129   -0.2334    0.0000 H       1  UNL1        0.0235
     72 H           8.2395    3.0990    0.0000 H       1  UNL1        0.0239
     73 H           7.5565    2.5492    0.0000 H       1  UNL1        0.0239
     74 H           8.1062    1.8662    0.0000 H       1  UNL1        0.0239
     75 H           8.7221    4.2194    0.0000 H       1  UNL1        0.0392
     76 H          10.9711    4.1901    0.0000 H       1  UNL1        0.0275
     77 H          10.3285    4.6637    0.0000 H       1  UNL1        0.0275
     78 H           7.9555   -1.6328    0.0000 H       1  UNL1        0.0290
     79 H           8.3493   -2.3272    0.0000 H       1  UNL1        0.0290
     80 H          10.0027   -2.5792    0.0000 H       1  UNL1        0.0597
     81 H          11.5155    2.6612    0.0000 H       1  UNL1        0.2102
     82 H           7.4818    3.9759    0.0000 H       1  UNL1        0.0535
     83 H           7.3787    2.9070    0.0000 H       1  UNL1        0.0535
     84 H           9.9325    5.5720    0.0000 H       1  UNL1        0.0746
     85 H           9.8451    6.3970    0.0000 H       1  UNL1        0.0746
     86 H           8.5991   -3.1502    0.0000 H       1  UNL1        0.0949
     87 H           7.4926    4.8613    0.0000 H       1  UNL1        0.0690
     88 H           8.5991   -5.3902    0.0000 H       1  UNL1        0.0813
     89 H           7.1962   -5.5802    0.0000 H       1  UNL1        0.0662
     90 H           6.8671   -3.1502    0.0000 H       1  UNL1        0.0621
     91 H           6.3301   -4.4602    0.0000 H       1  UNL1        0.0650
     92 H           6.3110   -2.7333    0.0000 H       1  UNL1        0.0255
     93 H           5.4641   -2.9602    0.0000 H       1  UNL1        0.0255
     94 H           5.6910   -3.8072    0.0000 H       1  UNL1        0.0255
     95 H           5.1350   -5.3902    0.0000 H       1  UNL1        0.0938
     96 H           6.5571   -6.2333    0.0000 H       1  UNL1        0.0524
     97 H           6.3301   -7.0802    0.0000 H       1  UNL1        0.0524
     98 H           7.1771   -7.3072    0.0000 H       1  UNL1        0.0524
     99 H           3.7320   -5.5802    0.0000 H       1  UNL1        0.0671
    100 H          10.0212   -7.3072    0.0000 H       1  UNL1        0.0342
    101 H          10.8681   -7.0802    0.0000 H       1  UNL1        0.0342
    102 H          10.6412   -6.2333    0.0000 H       1  UNL1        0.0342
    103 H           2.8660   -4.4602    0.0000 H       1  UNL1        0.0648
    104 H           4.8059   -2.9602    0.0000 H       1  UNL1        0.0647
    105 H           3.4030   -3.1502    0.0000 H       1  UNL1        0.0647
    106 H           3.7320   -6.5802    0.0000 H       1  UNL1        0.2101
    107 H           4.0569   -1.6876    0.0000 H       1  UNL1        0.0584
    108 H           3.6584   -2.3779    0.0000 H       1  UNL1        0.0584
    109 H           2.0000   -4.9602    0.0000 H       1  UNL1        0.2100
    110 H           2.5369   -2.6502    0.0000 H       1  UNL1        0.2100
    111 H           5.1350   -1.1502    0.0000 H       1  UNL1        0.2095
@<TRIPOS>BOND
     1    18     1    1
     2     1    81    1
     3    33     2    1
     4    37     2    1
     5     3    36    1
     6     3    40    1
     7     4    37    1
     8     4    42    1
     9    39     5    1
    10     5    45    1
    11     6    40    2
    12    41     7    1
    13     7    47    1
    14    43     8    1
    15    46     8    1
    16     9    46    1
    17     9    51    1
    18    10    45    2
    19    48    11    1
    20    11   106    1
    21    50    12    1
    22    12   109    1
    23    52    13    1
    24    13   110    1
    25    14    53    1
    26    14   111    1
    27    15    16    1
    28    15    17    1
    29    15    20    1
    30    15    54    1
    31    16    18    1
    32    16    22    1
    33    16    55    1
    34    17    21    1
    35    17    25    1
    36    17    28    1
    37    18    19    1
    38    18    24    1
    39    19    20    1
    40    19    26    1
    41    19    29    1
    42    20    56    1
    43    20    57    1
    44    21    23    1
    45    21    27    1
    46    21    58    1
    47    22    23    1
    48    22    59    1
    49    22    60    1
    50    23    61    1
    51    23    62    1
    52    24    31    1
    53    24    63    1
    54    24    64    1
    55    25    32    1
    56    25    65    1
    57    25    66    1
    58    26    30    1
    59    26    34    2
    60    27    33    1
    61    27    67    1
    62    27    68    1
    63    28    69    1
    64    28    70    1
    65    28    71    1
    66    29    72    1
    67    29    73    1
    68    29    74    1
    69    30    31    1
    70    30    35    1
    71    30    75    1
    72    31    76    1
    73    31    77    1
    74    32    33    1
    75    32    78    1
    76    32    79    1
    77    33    80    1
    78    34    82    1
    79    34    83    1
    80    35    36    1
    81    35    38    2
    82    36    84    1
    83    36    85    1
    84    37    39    1
    85    37    86    1
    86    38    40    1
    87    38    87    1
    88    39    41    1
    89    39    88    1
    90    41    43    1
    91    41    89    1
    92    42    43    1
    93    42    44    1
    94    42    90    1
    95    43    91    1
    96    44    92    1
    97    44    93    1
    98    44    94    1
    99    45    49    1
   100    46    48    1
   101    46    95    1
   102    47    96    1
   103    47    97    1
   104    47    98    1
   105    48    50    1
   106    48    99    1
   107    49   100    1
   108    49   101    1
   109    49   102    1
   110    50    52    1
   111    50   103    1
   112    51    52    1
   113    51    53    1
   114    51   104    1
   115    52   105    1
   116    53   107    1
   117    53   108    1
