@<TRIPOS>MOLECULE
IMPHY009740
 29 30 0 0 0
SMALL
GASTEIGER

@<TRIPOS>ATOM
      1 O           2.4490   -1.2027    0.0000 O.3     1  UNL1       -0.3880
      2 C           2.9816    0.2218    0.0000 C.3     1  UNL1       -0.0033
      3 C           4.9552    0.8400    0.0000 C.3     1  UNL1       -0.0329
      4 C           4.6964   -0.1259    0.0000 C.3     1  UNL1       -0.0116
      5 C           3.3236   -0.7179    0.0000 C.3     1  UNL1        0.0715
      6 C           4.2186    1.8226    0.0000 C.3     1  UNL1       -0.0442
      7 C           6.3541    0.3312    0.0000 C.3     1  UNL1       -0.0493
      8 C           6.0953   -0.6347    0.0000 C.3     1  UNL1       -0.0473
      9 C           2.4968    1.0964    0.0000 C.3     1  UNL1       -0.0569
     10 C           2.0000    0.0310    0.0000 C.3     1  UNL1       -0.0569
     11 C           3.5145   -1.6996    0.0000 C.3     1  UNL1       -0.0353
     12 H           4.9411    0.2202    0.0000 H       1  UNL1        0.0307
     13 H           4.7144   -0.7456    0.0000 H       1  UNL1        0.0329
     14 H           4.5364    2.3550    0.0000 H       1  UNL1        0.0272
     15 H           3.6054    1.9146    0.0000 H       1  UNL1        0.0272
     16 H           6.9481    0.1534    0.0000 H       1  UNL1        0.0268
     17 H           6.5490    0.9198    0.0000 H       1  UNL1        0.0268
     18 H           5.9004   -1.2233    0.0000 H       1  UNL1        0.0269
     19 H           6.6893   -0.8125    0.0000 H       1  UNL1        0.0269
     20 H           1.8817    0.6396    0.0000 H       1  UNL1        0.0236
     21 H           1.3914   -0.0873    0.0000 H       1  UNL1        0.0236
     22 H           2.1183   -0.5776    0.0000 H       1  UNL1        0.0236
     23 H           3.0391    1.3970    0.0000 H       1  UNL1        0.0236
     24 H           2.1962    1.6386    0.0000 H       1  UNL1        0.0236
     25 H           1.9546    0.7958    0.0000 H       1  UNL1        0.0236
     26 H           2.9058   -1.8178    0.0000 H       1  UNL1        0.0257
     27 H           3.6328   -2.3082    0.0000 H       1  UNL1        0.0257
     28 H           4.1231   -1.5812    0.0000 H       1  UNL1        0.0257
     29 H           2.4382   -1.8226    0.0000 H       1  UNL1        0.2102
@<TRIPOS>BOND
     1     1     5    1
     2     1    29    1
     3     2     3    1
     4     2     5    1
     5     2     9    1
     6     2    10    1
     7     3     6    1
     8     3     7    1
     9     3    12    1
    10     4     5    1
    11     4     6    1
    12     4     8    1
    13     4    13    1
    14     5    11    1
    15     6    14    1
    16     6    15    1
    17     7     8    1
    18     7    16    1
    19     7    17    1
    20     8    18    1
    21     8    19    1
    22     9    23    1
    23     9    24    1
    24     9    25    1
    25    10    20    1
    26    10    21    1
    27    10    22    1
    28    11    26    1
    29    11    27    1
    30    11    28    1
