@<TRIPOS>MOLECULE
IMPHY008333
 32 34 0 0 0
SMALL
GASTEIGER

@<TRIPOS>ATOM
      1 O           6.6498    2.0951    0.0000 O.3     1  UNL1       -0.4930
      2 O           8.3780   -1.1604    0.0000 O.3     1  UNL1       -0.4644
      3 O           7.0864   -2.3143    0.0000 O.2     1  UNL1       -0.2450
      4 N           4.5274    1.4961    0.0000 N.ar    1  UNL1       -0.3513
      5 C           5.0274   -0.0427    0.0000 C.ar    1  UNL1        0.0118
      6 C           5.3364    0.9083    0.0000 C.ar    1  UNL1        0.0898
      7 C           4.0274   -0.0427    0.0000 C.ar    1  UNL1        0.0075
      8 C           3.7183    0.9083    0.0000 C.ar    1  UNL1        0.0476
      9 C           6.3518    1.1406    0.0000 C.ar    1  UNL1        0.1447
     10 C           5.7123   -0.8275    0.0000 C.ar    1  UNL1       -0.0378
     11 C           6.7328   -0.6188    0.0000 C.ar    1  UNL1        0.0631
     12 C           3.3424   -0.8275    0.0000 C.ar    1  UNL1       -0.0520
     13 C           7.0547    0.3719    0.0000 C.ar    1  UNL1       -0.0039
     14 C           2.7029    1.1406    0.0000 C.ar    1  UNL1       -0.0378
     15 C           2.3219   -0.6188    0.0000 C.ar    1  UNL1       -0.0611
     16 C           2.0000    0.3719    0.0000 C.ar    1  UNL1       -0.0598
     17 C           7.3991   -1.3645    0.0000 C.2     1  UNL1        0.3391
     18 C           7.6255    2.3143    0.0000 C.3     1  UNL1        0.0789
     19 C           9.0443   -1.9061    0.0000 C.3     1  UNL1        0.0820
     20 H           4.5274    2.1161    0.0000 H       1  UNL1        0.1660
     21 H           5.5139   -1.4149    0.0000 H       1  UNL1        0.0632
     22 H           3.5408   -1.4149    0.0000 H       1  UNL1        0.0624
     23 H           7.6607    0.5031    0.0000 H       1  UNL1        0.0663
     24 H           2.5182    1.7324    0.0000 H       1  UNL1        0.0638
     25 H           1.9088   -1.0811    0.0000 H       1  UNL1        0.0618
     26 H           1.3940    0.5031    0.0000 H       1  UNL1        0.0618
     27 H           7.7614    1.7094    0.0000 H       1  UNL1        0.0660
     28 H           8.2304    2.4502    0.0000 H       1  UNL1        0.0660
     29 H           7.4896    2.9193    0.0000 H       1  UNL1        0.0660
     30 H           8.5820   -2.3192    0.0000 H       1  UNL1        0.0661
     31 H           9.4574   -2.3684    0.0000 H       1  UNL1        0.0661
     32 H           9.5066   -1.4930    0.0000 H       1  UNL1        0.0661
@<TRIPOS>BOND
     1     1     9    1
     2     1    18    1
     3     2    17    1
     4     2    19    1
     5     3    17    2
     6     4     6   ar
     7     4     8   ar
     8     4    20    1
     9     5     6   ar
    10     5     7   ar
    11     5    10   ar
    12     6     9   ar
    13     7     8   ar
    14     7    12   ar
    15     8    14   ar
    16     9    13   ar
    17    10    11   ar
    18    10    21    1
    19    11    13   ar
    20    11    17    1
    21    12    15   ar
    22    12    22    1
    23    13    23    1
    24    14    16   ar
    25    14    24    1
    26    15    16   ar
    27    15    25    1
    28    16    26    1
    29    18    27    1
    30    18    28    1
    31    18    29    1
    32    19    30    1
    33    19    31    1
    34    19    32    1
