@<TRIPOS>MOLECULE
IMPHY010708
 43 46 0 0 0
SMALL
GASTEIGER

@<TRIPOS>ATOM
      1 C           2.2806   -5.6882    0.0000 C.ar    1  UNL1        0.0031
      2 C           2.3159   -4.8649    0.0000 C.ar    1  UNL1        0.0004
      3 C           1.6178   -4.4267    0.0000 C.ar    1  UNL1        0.0031
      4 C           0.8878   -4.8130    0.0000 C.ar    1  UNL1        0.0369
      5 C           0.8602   -5.6418    0.0000 C.ar    1  UNL1        0.1387
      6 C           1.5591   -6.0762    0.0000 C.ar    1  UNL1        0.0369
      7 C           8.0435   -4.3791    0.0000 C.3     1  UNL1        0.2853
      8 O           8.4815   -3.6849    0.0000 O.2     1  UNL1       -0.4498
      9 C           8.0953   -2.9559    0.0000 C.2     1  UNL1        0.1769
     10 C           7.2711   -2.9210    0.0000 C.2     1  UNL1        0.0885
     11 C           7.2232   -4.3516    0.0000 C.3     1  UNL1        0.0522
     12 C           6.8349   -3.6185    0.0000 C.3     1  UNL1        0.0433
     13 C           6.0176   -3.7612    0.0000 C.3     1  UNL1        0.1918
     14 C           5.9009   -4.5826    0.0000 C.3     1  UNL1        0.1990
     15 C           6.6460   -4.9473    0.0000 C.3     1  UNL1        0.0451
     16 C           6.8866   -2.1911    0.0000 C.2     1  UNL1        0.3401
     17 O           7.3265   -1.4932    0.0000 O.3     1  UNL1       -0.4415
     18 O           6.0622   -2.1591    0.0000 O.2     1  UNL1       -0.2451
     19 C           8.1509   -1.5252    0.0000 C.3     1  UNL1        0.2559
     20 O           5.4251   -3.1872    0.0000 O.3     1  UNL1       -0.2193
     21 O           5.1719   -4.9688    0.0000 O.3     1  UNL1       -0.4466
     22 C           6.7880   -5.7600    0.0000 C.3     1  UNL1        0.0037
     23 O           8.4297   -5.1081    0.0000 O.3     1  UNL1       -0.3014
     24 H           6.4432   -2.8881    0.0000 H       1  UNL1        0.0389
     25 H           7.6057   -5.0825    0.0000 H       1  UNL1        0.0381
     26 C           9.2542   -5.1381    0.0000 C.3     1  UNL1        0.2026
     27 O           9.6377   -5.8697    0.0000 O.3     1  UNL1       -0.3320
     28 C          10.4584   -5.9015    0.0000 C.3     1  UNL1        0.1830
     29 C          10.9005   -5.2045    0.0000 C.3     1  UNL1        0.2144
     30 C          10.5156   -4.4737    0.0000 C.3     1  UNL1        0.2193
     31 C           9.6886   -4.4399    0.0000 C.3     1  UNL1        0.2318
     32 O           9.3028   -3.7107    0.0000 O.3     1  UNL1       -0.2154
     33 O          10.9562   -3.7762    0.0000 O.3     1  UNL1       -0.2174
     34 O          11.7248   -5.2377    0.0000 O.3     1  UNL1       -0.2176
     35 C          10.8419   -6.6320    0.0000 C.3     1  UNL1        0.2142
     36 O          11.6662   -6.6651    0.0000 O.3     1  UNL1       -0.2176
     37 H           8.8107   -5.8351    0.0000 H       1  UNL1        0.0945
     38 C           4.4729   -4.5306    0.0000 C.2     1  UNL1        0.3414
     39 O           4.5029   -3.7061    0.0000 O.2     1  UNL1       -0.2449
     40 C           3.7439   -4.9168    0.0000 C.2     1  UNL1        0.0819
     41 C           3.0449   -4.4786    0.0000 C.2     1  UNL1        0.0067
     42 O           0.1326   -6.0305    0.0000 O.3     1  UNL1       -0.4714
     43 C          -0.5680   -5.5948    0.0000 C.3     1  UNL1        0.2525
@<TRIPOS>BOND
     1     1     2   ar
     2     2     3   ar
     3     3     4   ar
     4     4     5   ar
     5     5     6   ar
     6     5    42    1
     7     6     1   ar
     8     7     8    1
     9     7    23    1
    10     8     9    1
    11     9    10    2
    12    10    16    1
    13    11    12    1
    14    11     7    1
    15    11    25    1
    16    12    10    1
    17    12    13    1
    18    12    24    1
    19    13    20    1
    20    13    14    1
    21    14    21    1
    22    14    15    1
    23    15    22    1
    24    15    11    1
    25    16    17    1
    26    16    18    2
    27    17    19    1
    28    21    38    1
    29    26    23    1
    30    26    27    1
    31    26    31    1
    32    26    37    1
    33    27    28    1
    34    28    29    1
    35    28    35    1
    36    29    30    1
    37    29    34    1
    38    30    31    1
    39    30    33    1
    40    31    32    1
    41    35    36    1
    42    38    39    2
    43    38    40    1
    44    40    41    2
    45    41     2    1
    46    42    43    1
