@<TRIPOS>MOLECULE
IMPHY007633
 45 45 0 0 0
SMALL
GASTEIGER

@<TRIPOS>ATOM
      1 O           3.7320   -2.0000    0.0000 O.3     1  UNL1       -0.4599
      2 O           2.8660   -0.5000    0.0000 O.2     1  UNL1       -0.2508
      3 C           6.3301    2.5000    0.0000 C.3     1  UNL1       -0.0531
      4 C           5.4641    2.0000    0.0000 C.3     1  UNL1       -0.0530
      5 C           6.3301    3.5000    0.0000 C.3     1  UNL1       -0.0531
      6 C           5.4641    1.0000    0.0000 C.3     1  UNL1       -0.0526
      7 C           7.1962    4.0000    0.0000 C.3     1  UNL1       -0.0533
      8 C           4.5981    0.5000    0.0000 C.3     1  UNL1       -0.0430
      9 C           7.1962    5.0000    0.0000 C.3     1  UNL1       -0.0559
     10 C           4.5981   -0.5000    0.0000 C.3     1  UNL1        0.0449
     11 C           8.0622    5.5000    0.0000 C.3     1  UNL1       -0.0653
     12 C           3.7320   -1.0000    0.0000 C.2     1  UNL1        0.3074
     13 C           2.8660   -2.5000    0.0000 C.3     1  UNL1        0.1175
     14 C           2.8660   -3.5000    0.0000 C.ar    1  UNL1       -0.0103
     15 C           2.0000   -4.0000    0.0000 C.ar    1  UNL1       -0.0554
     16 C           3.7320   -4.0000    0.0000 C.ar    1  UNL1       -0.0554
     17 C           2.0000   -5.0000    0.0000 C.ar    1  UNL1       -0.0614
     18 C           3.7320   -5.0000    0.0000 C.ar    1  UNL1       -0.0614
     19 C           2.8660   -5.5000    0.0000 C.ar    1  UNL1       -0.0617
     20 H           6.5422    1.9174    0.0000 H       1  UNL1        0.0265
     21 H           6.9407    2.6077    0.0000 H       1  UNL1        0.0265
     22 H           5.2520    2.5826    0.0000 H       1  UNL1        0.0265
     23 H           4.8535    1.8923    0.0000 H       1  UNL1        0.0265
     24 H           6.1181    4.0826    0.0000 H       1  UNL1        0.0265
     25 H           5.7196    3.3923    0.0000 H       1  UNL1        0.0265
     26 H           5.6762    0.4174    0.0000 H       1  UNL1        0.0265
     27 H           6.0747    1.1077    0.0000 H       1  UNL1        0.0265
     28 H           7.4082    3.4174    0.0000 H       1  UNL1        0.0265
     29 H           7.8067    4.1077    0.0000 H       1  UNL1        0.0265
     30 H           4.3860    1.0826    0.0000 H       1  UNL1        0.0270
     31 H           3.9875    0.3923    0.0000 H       1  UNL1        0.0270
     32 H           6.9841    5.5826    0.0000 H       1  UNL1        0.0263
     33 H           6.5856    4.8923    0.0000 H       1  UNL1        0.0263
     34 H           4.8101   -1.0826    0.0000 H       1  UNL1        0.0377
     35 H           5.2087   -0.3923    0.0000 H       1  UNL1        0.0377
     36 H           8.3722    4.9631    0.0000 H       1  UNL1        0.0230
     37 H           8.5991    5.8100    0.0000 H       1  UNL1        0.0230
     38 H           7.7522    6.0369    0.0000 H       1  UNL1        0.0230
     39 H           2.6540   -1.9174    0.0000 H       1  UNL1        0.0749
     40 H           2.2554   -2.6077    0.0000 H       1  UNL1        0.0749
     41 H           1.4631   -3.6900    0.0000 H       1  UNL1        0.0621
     42 H           4.2690   -3.6900    0.0000 H       1  UNL1        0.0621
     43 H           1.4631   -5.3100    0.0000 H       1  UNL1        0.0618
     44 H           4.2690   -5.3100    0.0000 H       1  UNL1        0.0618
     45 H           2.8660   -6.1200    0.0000 H       1  UNL1        0.0618
@<TRIPOS>BOND
     1     1    12    1
     2     1    13    1
     3     2    12    2
     4     3     4    1
     5     3     5    1
     6     3    20    1
     7     3    21    1
     8     4     6    1
     9     4    22    1
    10     4    23    1
    11     5     7    1
    12     5    24    1
    13     5    25    1
    14     6     8    1
    15     6    26    1
    16     6    27    1
    17     7     9    1
    18     7    28    1
    19     7    29    1
    20     8    10    1
    21     8    30    1
    22     8    31    1
    23     9    11    1
    24     9    32    1
    25     9    33    1
    26    10    12    1
    27    10    34    1
    28    10    35    1
    29    11    36    1
    30    11    37    1
    31    11    38    1
    32    13    14    1
    33    13    39    1
    34    13    40    1
    35    14    15   ar
    36    14    16   ar
    37    15    17   ar
    38    15    41    1
    39    16    18   ar
    40    16    42    1
    41    17    19   ar
    42    17    43    1
    43    18    19   ar
    44    18    44    1
    45    19    45    1
