@<TRIPOS>MOLECULE
IMPHY014445
 44 45 0 0 0
SMALL
GASTEIGER

@<TRIPOS>ATOM
      1 O           4.5000   -1.0446    0.0000 O.3     1  UNL1       -0.3905
      2 O           6.8660   -1.6786    0.0000 O.2     1  UNL1       -0.2912
      3 O           6.8660    2.3214    0.0000 O.2     1  UNL1       -0.2919
      4 O           8.6144   -1.7132    0.0000 O.3     1  UNL1       -0.5060
      5 O           8.6144    2.3560    0.0000 O.3     1  UNL1       -0.5060
      6 O           4.3867   -2.3715    0.0000 O.co2   1  UNL1       -0.5498
      7 O           6.0924   -2.6722    0.0000 O.co2   1  UNL1       -0.5498
      8 C           6.0000   -0.1786    0.0000 C.3     1  UNL1        0.0718
      9 C           5.0000   -0.1786    0.0000 C.3     1  UNL1        0.0720
     10 C           6.0000    0.8214    0.0000 C.3     1  UNL1        0.0260
     11 C           5.5000   -1.0446    0.0000 C.3     1  UNL1        0.0023
     12 C           6.8660   -0.6786    0.0000 C.2     1  UNL1        0.1768
     13 C           4.5000    0.6874    0.0000 C.3     1  UNL1       -0.0074
     14 C           7.7320   -0.1786    0.0000 C.ar    1  UNL1        0.0734
     15 C           6.8660    1.3214    0.0000 C.2     1  UNL1        0.1685
     16 C           7.7320    0.8214    0.0000 C.ar    1  UNL1        0.0728
     17 C           5.3264   -2.0294    0.0000 C.2     1  UNL1        0.0428
     18 C           8.6260   -0.7132    0.0000 C.ar    1  UNL1        0.1282
     19 C           3.5000    0.6874    0.0000 C.2     1  UNL1       -0.0828
     20 C           8.6260    1.3561    0.0000 C.ar    1  UNL1        0.1282
     21 C           9.5321   -0.1994    0.0000 C.ar    1  UNL1       -0.0160
     22 C           9.5321    0.8422    0.0000 C.ar    1  UNL1       -0.0160
     23 C           3.0000    1.5535    0.0000 C.2     1  UNL1       -0.0795
     24 C           2.0000    1.5535    0.0000 C.3     1  UNL1       -0.0440
     25 C           3.5000    2.4195    0.0000 C.3     1  UNL1       -0.0440
     26 H           4.3800   -0.1786    0.0000 H       1  UNL1        0.0606
     27 H           5.7880    1.4040    0.0000 H       1  UNL1        0.0356
     28 H           5.3894    0.7138    0.0000 H       1  UNL1        0.0356
     29 H           5.1298   -0.5473    0.0000 H       1  UNL1        0.0335
     30 H           6.0826   -1.2567    0.0000 H       1  UNL1        0.0335
     31 H           5.0826    0.8995    0.0000 H       1  UNL1        0.0333
     32 H           4.3923    1.2980    0.0000 H       1  UNL1        0.0333
     33 H           3.8800   -1.0446    0.0000 H       1  UNL1        0.2098
     34 H           3.1900    0.1505    0.0000 H       1  UNL1        0.0572
     35 H          10.0678   -0.5115    0.0000 H       1  UNL1        0.0655
     36 H          10.0678    1.1543    0.0000 H       1  UNL1        0.0655
     37 H           9.1477   -2.0294    0.0000 H       1  UNL1        0.2922
     38 H           9.1477    2.6722    0.0000 H       1  UNL1        0.2922
     39 H           2.0000    2.1735    0.0000 H       1  UNL1        0.0274
     40 H           1.3800    1.5535    0.0000 H       1  UNL1        0.0274
     41 H           2.0000    0.9335    0.0000 H       1  UNL1        0.0274
     42 H           4.0369    2.1095    0.0000 H       1  UNL1        0.0274
     43 H           3.8100    2.9564    0.0000 H       1  UNL1        0.0274
     44 H           2.9631    2.7295    0.0000 H       1  UNL1        0.0274
@<TRIPOS>UNITY_ATOM_ATTR
6 1
charge -1
@<TRIPOS>BOND
     1     1     9    1
     2     1    33    1
     3     2    12    2
     4     3    15    2
     5     4    18    1
     6     4    37    1
     7     5    20    1
     8     5    38    1
     9     6    17   ar
    10     7    17   ar
    11     8     9    1
    12     8    10    1
    13     8    11    1
    14     8    12    1
    15     9    13    1
    16     9    26    1
    17    10    15    1
    18    10    27    1
    19    10    28    1
    20    11    17    1
    21    11    29    1
    22    11    30    1
    23    12    14    1
    24    13    19    1
    25    13    31    1
    26    13    32    1
    27    14    16   ar
    28    14    18   ar
    29    15    16    1
    30    16    20   ar
    31    18    21   ar
    32    19    23    2
    33    19    34    1
    34    20    22   ar
    35    21    22   ar
    36    21    35    1
    37    22    36    1
    38    23    24    1
    39    23    25    1
    40    24    39    1
    41    24    40    1
    42    24    41    1
    43    25    42    1
    44    25    43    1
    45    25    44    1
