@<TRIPOS>MOLECULE
IMPHY015703
 39 42 0 0 0
SMALL
GASTEIGER

@<TRIPOS>ATOM
      1 O           9.8769   -1.8723    0.0000 O.3     1  UNL1       -0.4815
      2 O           5.4771   -0.2427    0.0000 O.2     1  UNL1       -0.4546
      3 O           8.1169    1.1624    0.0000 O.3     1  UNL1       -0.5053
      4 O           2.3100    1.3603    0.0000 O.3     1  UNL1       -0.5066
      5 C          10.7830   -1.3584    0.0000 C.3     1  UNL1        0.1235
      6 C           8.9830   -0.3376    0.0000 C.ar    1  UNL1        0.0586
      7 C           8.9830   -1.3376    0.0000 C.ar    1  UNL1        0.1324
      8 C          10.7830   -0.3168    0.0000 C.2     1  UNL1       -0.0408
      9 C          11.7829   -1.3623    0.0000 C.3     1  UNL1       -0.0215
     10 C          11.2796   -2.2264    0.0000 C.3     1  UNL1       -0.0215
     11 C           9.8769    0.1971    0.0000 C.2     1  UNL1       -0.0478
     12 C           7.2509   -0.3376    0.0000 C.ar    1  UNL1        0.0595
     13 C           8.1169    0.1624    0.0000 C.ar    1  UNL1        0.1381
     14 C           6.3849    0.1624    0.0000 C.ar    1  UNL1        0.1398
     15 C           8.1169   -1.8376    0.0000 C.ar    1  UNL1       -0.0184
     16 C           7.2509   -1.3376    0.0000 C.ar    1  UNL1       -0.0441
     17 C           5.3100    1.3603    0.0000 C.ar    1  UNL1        0.0210
     18 C           6.2818    1.1511    0.0000 C.ar    1  UNL1       -0.0080
     19 C           4.8100    0.4943    0.0000 C.ar    1  UNL1        0.1391
     20 C           4.8100    2.2264    0.0000 C.ar    1  UNL1       -0.0475
     21 C           3.8100    0.4943    0.0000 C.ar    1  UNL1        0.0227
     22 C           3.3100    1.3603    0.0000 C.ar    1  UNL1        0.1204
     23 C           3.8100    2.2264    0.0000 C.ar    1  UNL1       -0.0194
     24 H          11.3187   -0.0047    0.0000 H       1  UNL1        0.0611
     25 H          11.7806   -1.9823    0.0000 H       1  UNL1        0.0271
     26 H          12.4029   -1.3647    0.0000 H       1  UNL1        0.0271
     27 H          11.7853   -0.7423    0.0000 H       1  UNL1        0.0271
     28 H          10.7415   -2.5343    0.0000 H       1  UNL1        0.0271
     29 H          11.5875   -2.7645    0.0000 H       1  UNL1        0.0271
     30 H          11.8177   -1.9184    0.0000 H       1  UNL1        0.0271
     31 H           9.8697    0.8170    0.0000 H       1  UNL1        0.0624
     32 H           8.1169   -2.4576    0.0000 H       1  UNL1        0.0654
     33 H           6.7140   -1.6476    0.0000 H       1  UNL1        0.0627
     34 H           6.7433    1.5652    0.0000 H       1  UNL1        0.0661
     35 H           5.1200    2.7633    0.0000 H       1  UNL1        0.0626
     36 H           3.5000   -0.0426    0.0000 H       1  UNL1        0.0691
     37 H           8.6539    1.4724    0.0000 H       1  UNL1        0.2922
     38 H           3.5000    2.7633    0.0000 H       1  UNL1        0.0654
     39 H           2.0000    1.8973    0.0000 H       1  UNL1        0.2921
@<TRIPOS>BOND
     1     1     5    1
     2     1     7    1
     3     2    14   ar
     4     2    19   ar
     5     3    13    1
     6     3    37    1
     7     4    22    1
     8     4    39    1
     9     5     8    1
    10     5     9    1
    11     5    10    1
    12     6     7   ar
    13     6    11    1
    14     6    13   ar
    15     7    15   ar
    16     8    11    2
    17     8    24    1
    18     9    25    1
    19     9    26    1
    20     9    27    1
    21    10    28    1
    22    10    29    1
    23    10    30    1
    24    11    31    1
    25    12    13   ar
    26    12    14    1
    27    12    16   ar
    28    14    18   ar
    29    15    16   ar
    30    15    32    1
    31    16    33    1
    32    17    18   ar
    33    17    19   ar
    34    17    20   ar
    35    18    34    1
    36    19    21   ar
    37    20    23   ar
    38    20    35    1
    39    21    22   ar
    40    21    36    1
    41    22    23   ar
    42    23    38    1
