@<TRIPOS>MOLECULE
IMPHY005415
 154 163 0 0 0
SMALL
GASTEIGER

@<TRIPOS>ATOM
      1 O          14.3523    6.0022    0.0000 O.3     1  UNL1       -0.3448
      2 O          12.5799    6.8970    0.0000 O.3     1  UNL1       -0.3480
      3 O          12.9292   -2.2419    0.0000 O.3     1  UNL1       -0.3454
      4 O          11.1972   -2.2419    0.0000 O.3     1  UNL1       -0.3405
      5 O          12.9292   -4.2419    0.0000 O.3     1  UNL1       -0.3841
      6 O          11.1972   -5.2419    0.0000 O.3     1  UNL1       -0.3864
      7 O           9.4651   -4.2419    0.0000 O.3     1  UNL1       -0.3401
      8 O           9.4651   -1.2419    0.0000 O.3     1  UNL1       -0.3924
      9 O           8.5991   -2.7419    0.0000 O.3     1  UNL1       -0.3405
     10 O           7.7331   -5.2419    0.0000 O.3     1  UNL1       -0.3377
     11 O           6.0010   -4.2419    0.0000 O.3     1  UNL1       -0.3401
     12 O           6.0010   -2.2419    0.0000 O.3     1  UNL1       -0.3865
     13 O           6.4062   -6.3552    0.0000 O.3     1  UNL1       -0.3405
     14 O           6.8671   -0.7419    0.0000 O.3     1  UNL1       -0.3924
     15 O           5.1350   -2.7419    0.0000 O.3     1  UNL1       -0.3461
     16 O           9.0187   -6.7739    0.0000 O.3     1  UNL1       -0.3841
     17 O           8.3347   -8.6534    0.0000 O.3     1  UNL1       -0.3864
     18 O           4.2690   -5.2419    0.0000 O.3     1  UNL1       -0.3841
     19 O           6.3650   -9.0006    0.0000 O.3     1  UNL1       -0.3865
     20 O           2.5369   -4.2419    0.0000 O.3     1  UNL1       -0.3864
     21 O           2.5369   -2.2419    0.0000 O.3     1  UNL1       -0.3869
     22 O           4.7374   -8.4082    0.0000 O.3     1  UNL1       -0.3924
     23 C          12.9585    3.9550    0.0000 C.3     1  UNL1       -0.0233
     24 C          13.8264    3.4583    0.0000 C.3     1  UNL1       -0.0298
     25 C          13.8303    2.4583    0.0000 C.3     1  UNL1       -0.0343
     26 C          13.1640    4.9276    0.0000 C.3     1  UNL1       -0.0015
     27 C          12.9662    1.9550    0.0000 C.3     1  UNL1       -0.0323
     28 C          14.1523    5.0345    0.0000 C.3     1  UNL1        0.0660
     29 C          12.9542    0.9134    0.0000 C.3     1  UNL1       -0.0260
     30 C          14.5609    4.1282    0.0000 C.3     1  UNL1       -0.0226
     31 C          12.0944    3.4516    0.0000 C.3     1  UNL1       -0.0467
     32 C          12.0983    2.4517    0.0000 C.3     1  UNL1       -0.0489
     33 C          12.7617    5.8302    0.0000 C.3     1  UNL1        0.0160
     34 C          13.8542    0.3891    0.0000 C.3     1  UNL1       -0.0330
     35 C          14.7422    1.9550    0.0000 C.3     1  UNL1       -0.0494
     36 C          13.4946    6.4930    0.0000 C.3     1  UNL1        0.1732
     37 C          14.7543    0.9134    0.0000 C.3     1  UNL1       -0.0494
     38 C          12.0906    4.4516    0.0000 C.3     1  UNL1       -0.0590
     39 C          12.0043    0.3891    0.0000 C.3     1  UNL1       -0.0448
     40 C          13.8668   -0.6958    0.0000 C.3     1  UNL1       -0.0232
     41 C          12.0901    1.4168    0.0000 C.3     1  UNL1       -0.0590
     42 C          11.9917   -0.6958    0.0000 C.3     1  UNL1       -0.0260
     43 C          11.7833    6.0369    0.0000 C.3     1  UNL1       -0.0572
     44 C          12.9292   -1.2419    0.0000 C.3     1  UNL1        0.0621
     45 C          14.3019    7.0832    0.0000 C.3     1  UNL1        0.0020
     46 C          14.1944    8.0774    0.0000 C.3     1  UNL1       -0.0435
     47 C          12.4724    7.8912    0.0000 C.3     1  UNL1        0.0535
     48 C          13.2796    8.4814    0.0000 C.3     1  UNL1       -0.0201
     49 C          13.1721    9.4756    0.0000 C.3     1  UNL1       -0.0603
     50 C          12.0632   -2.7419    0.0000 C.3     1  UNL1        0.1882
     51 C          12.0632   -3.7419    0.0000 C.3     1  UNL1        0.1341
     52 C          11.1972   -4.2419    0.0000 C.3     1  UNL1        0.1144
     53 C          10.3312   -2.7419    0.0000 C.3     1  UNL1        0.1134
     54 C          10.3312   -3.7419    0.0000 C.3     1  UNL1        0.1184
     55 C           9.4651   -2.2419    0.0000 C.3     1  UNL1        0.0730
     56 C           8.5991   -3.7419    0.0000 C.3     1  UNL1        0.1888
     57 C           7.7331   -4.2419    0.0000 C.3     1  UNL1        0.1410
     58 C           6.8671   -3.7419    0.0000 C.3     1  UNL1        0.1209
     59 C           7.7331   -2.2419    0.0000 C.3     1  UNL1        0.1130
     60 C           6.8671   -2.7419    0.0000 C.3     1  UNL1        0.1123
     61 C           7.7331   -1.2419    0.0000 C.3     1  UNL1        0.0730
     62 C           7.3910   -6.1816    0.0000 C.3     1  UNL1        0.1885
     63 C           5.1350   -3.7419    0.0000 C.3     1  UNL1        0.1880
     64 C           8.0339   -6.9476    0.0000 C.3     1  UNL1        0.1341
     65 C           7.6918   -7.8873    0.0000 C.3     1  UNL1        0.1141
     66 C           4.2690   -4.2419    0.0000 C.3     1  UNL1        0.1341
     67 C           6.0642   -7.2949    0.0000 C.3     1  UNL1        0.1130
     68 C           6.7070   -8.0610    0.0000 C.3     1  UNL1        0.1119
     69 C           3.4030   -3.7419    0.0000 C.3     1  UNL1        0.1137
     70 C           4.2690   -2.2419    0.0000 C.3     1  UNL1        0.0792
     71 C           3.4030   -2.7419    0.0000 C.3     1  UNL1        0.1069
     72 C           5.0794   -7.4685    0.0000 C.3     1  UNL1        0.0730
     73 H          14.6047    3.1166    0.0000 H       1  UNL1        0.0310
     74 H          14.5615    2.8918    0.0000 H       1  UNL1        0.0306
     75 H          12.3187    4.8380    0.0000 H       1  UNL1        0.0335
     76 H          13.7007    1.5272    0.0000 H       1  UNL1        0.0309
     77 H          14.9972    5.1277    0.0000 H       1  UNL1        0.0600
     78 H          14.9283    3.6288    0.0000 H       1  UNL1        0.0293
     79 H          15.0962    4.4411    0.0000 H       1  UNL1        0.0293
     80 H          11.8801    4.0334    0.0000 H       1  UNL1        0.0271
     81 H          11.4842    3.3416    0.0000 H       1  UNL1        0.0271
     82 H          11.4873    2.5570    0.0000 H       1  UNL1        0.0268
     83 H          11.8885    1.8682    0.0000 H       1  UNL1        0.0268
     84 H          12.3719    5.3480    0.0000 H       1  UNL1        0.0354
     85 H          14.5936   -0.0302    0.0000 H       1  UNL1        0.0307
     86 H          15.3543    1.8560    0.0000 H       1  UNL1        0.0268
     87 H          14.9445    2.5411    0.0000 H       1  UNL1        0.0268
     88 H          14.9701    0.3322    0.0000 H       1  UNL1        0.0268
     89 H          15.3639    1.0266    0.0000 H       1  UNL1        0.0268
     90 H          12.3985    4.9898    0.0000 H       1  UNL1        0.0235
     91 H          11.5524    4.7596    0.0000 H       1  UNL1        0.0235
     92 H          11.7826    3.9135    0.0000 H       1  UNL1        0.0235
     93 H          11.8020    0.9752    0.0000 H       1  UNL1        0.0271
     94 H          11.3922    0.2901    0.0000 H       1  UNL1        0.0271
     95 H          14.0826   -1.2770    0.0000 H       1  UNL1        0.0293
     96 H          14.4764   -0.5826    0.0000 H       1  UNL1        0.0293
     97 H          12.4021    1.9525    0.0000 H       1  UNL1        0.0235
     98 H          11.5543    1.7288    0.0000 H       1  UNL1        0.0235
     99 H          11.7780    0.8810    0.0000 H       1  UNL1        0.0235
    100 H          11.3821   -0.5826    0.0000 H       1  UNL1        0.0290
    101 H          11.7759   -1.2770    0.0000 H       1  UNL1        0.0290
    102 H          11.9114    6.6435    0.0000 H       1  UNL1        0.0234
    103 H          11.1766    6.1650    0.0000 H       1  UNL1        0.0234
    104 H          11.6551    5.4303    0.0000 H       1  UNL1        0.0234
    105 H          12.3917   -1.5508    0.0000 H       1  UNL1        0.0597
    106 H          14.5753    6.5268    0.0000 H       1  UNL1        0.0317
    107 H          14.8974    7.2559    0.0000 H       1  UNL1        0.0317
    108 H          14.8130    8.0360    0.0000 H       1  UNL1        0.0270
    109 H          14.3426    8.6794    0.0000 H       1  UNL1        0.0270
    110 H          12.1989    8.4476    0.0000 H       1  UNL1        0.0563
    111 H          11.8769    7.7185    0.0000 H       1  UNL1        0.0563
    112 H          13.7801    8.8473    0.0000 H       1  UNL1        0.0320
    113 H          13.7885    9.5422    0.0000 H       1  UNL1        0.0233
    114 H          13.1055   10.0920    0.0000 H       1  UNL1        0.0233
    115 H          12.5557    9.4090    0.0000 H       1  UNL1        0.0233
    116 H          12.6002   -3.0519    0.0000 H       1  UNL1        0.0937
    117 H          12.0632   -4.3619    0.0000 H       1  UNL1        0.0671
    118 H          10.6603   -4.5519    0.0000 H       1  UNL1        0.0648
    119 H          10.3312   -2.1219    0.0000 H       1  UNL1        0.0647
    120 H           9.7942   -3.4319    0.0000 H       1  UNL1        0.0651
    121 H          13.4662   -3.9319    0.0000 H       1  UNL1        0.2101
    122 H           8.8546   -2.1342    0.0000 H       1  UNL1        0.0584
    123 H           9.2531   -2.8245    0.0000 H       1  UNL1        0.0584
    124 H          11.7341   -5.5519    0.0000 H       1  UNL1        0.2100
    125 H           8.5991   -4.3619    0.0000 H       1  UNL1        0.0938
    126 H           8.9282   -0.9319    0.0000 H       1  UNL1        0.2095
    127 H           7.1962   -4.5519    0.0000 H       1  UNL1        0.0675
    128 H           6.3301   -3.4319    0.0000 H       1  UNL1        0.0651
    129 H           8.2700   -1.9319    0.0000 H       1  UNL1        0.0647
    130 H           6.8671   -2.1219    0.0000 H       1  UNL1        0.0647
    131 H           8.3437   -1.3496    0.0000 H       1  UNL1        0.0584
    132 H           7.9451   -0.6593    0.0000 H       1  UNL1        0.0584
    133 H           6.9925   -5.7066    0.0000 H       1  UNL1        0.0938
    134 H           6.0010   -1.6219    0.0000 H       1  UNL1        0.2100
    135 H           5.1350   -4.3619    0.0000 H       1  UNL1        0.0937
    136 H           8.4324   -7.4226    0.0000 H       1  UNL1        0.0671
    137 H           7.4798   -8.4699    0.0000 H       1  UNL1        0.0648
    138 H           3.7320   -4.5519    0.0000 H       1  UNL1        0.0671
    139 H           6.8671   -0.1219    0.0000 H       1  UNL1        0.2095
    140 H           5.6656   -6.8199    0.0000 H       1  UNL1        0.0647
    141 H           6.0964   -8.1686    0.0000 H       1  UNL1        0.0647
    142 H           2.8660   -3.4319    0.0000 H       1  UNL1        0.0647
    143 H           9.4173   -7.2489    0.0000 H       1  UNL1        0.2101
    144 H           4.6675   -1.7669    0.0000 H       1  UNL1        0.0587
    145 H           3.8705   -1.7669    0.0000 H       1  UNL1        0.0587
    146 H           3.4030   -2.1219    0.0000 H       1  UNL1        0.0643
    147 H           5.0794   -6.8485    0.0000 H       1  UNL1        0.0584
    148 H           4.4688   -7.3608    0.0000 H       1  UNL1        0.0584
    149 H           8.9453   -8.5457    0.0000 H       1  UNL1        0.2100
    150 H           3.7320   -5.5519    0.0000 H       1  UNL1        0.2101
    151 H           6.7635   -9.4756    0.0000 H       1  UNL1        0.2100
    152 H           2.0000   -3.9319    0.0000 H       1  UNL1        0.2100
    153 H           2.5369   -1.6219    0.0000 H       1  UNL1        0.2100
    154 H           4.1268   -8.5158    0.0000 H       1  UNL1        0.2095
@<TRIPOS>BOND
     1     1    28    1
     2    36     1    1
     3     2    36    1
     4     2    47    1
     5    44     3    1
     6    50     3    1
     7     4    50    1
     8     4    53    1
     9    51     5    1
    10     5   121    1
    11    52     6    1
    12     6   124    1
    13    54     7    1
    14    56     7    1
    15     8    55    1
    16     8   126    1
    17     9    56    1
    18     9    59    1
    19    57    10    1
    20    62    10    1
    21    58    11    1
    22    63    11    1
    23    60    12    1
    24    12   134    1
    25    13    62    1
    26    13    67    1
    27    14    61    1
    28    14   139    1
    29    15    63    1
    30    15    70    1
    31    64    16    1
    32    16   143    1
    33    65    17    1
    34    17   149    1
    35    66    18    1
    36    18   150    1
    37    68    19    1
    38    19   151    1
    39    69    20    1
    40    20   152    1
    41    71    21    1
    42    21   153    1
    43    22    72    1
    44    22   154    1
    45    23    24    1
    46    23    26    1
    47    23    31    1
    48    23    38    1
    49    24    25    1
    50    24    30    1
    51    24    73    1
    52    25    27    1
    53    25    35    1
    54    25    74    1
    55    26    28    1
    56    26    33    1
    57    26    75    1
    58    27    29    1
    59    27    32    1
    60    27    76    1
    61    28    30    1
    62    28    77    1
    63    29    34    1
    64    29    39    1
    65    29    41    1
    66    30    78    1
    67    30    79    1
    68    31    32    1
    69    31    80    1
    70    31    81    1
    71    32    82    1
    72    32    83    1
    73    33    36    1
    74    33    43    1
    75    33    84    1
    76    34    37    1
    77    34    40    1
    78    34    85    1
    79    35    37    1
    80    35    86    1
    81    35    87    1
    82    36    45    1
    83    37    88    1
    84    37    89    1
    85    38    90    1
    86    38    91    1
    87    38    92    1
    88    39    42    1
    89    39    93    1
    90    39    94    1
    91    40    44    1
    92    40    95    1
    93    40    96    1
    94    41    97    1
    95    41    98    1
    96    41    99    1
    97    42    44    1
    98    42   100    1
    99    42   101    1
   100    43   102    1
   101    43   103    1
   102    43   104    1
   103    44   105    1
   104    45    46    1
   105    45   106    1
   106    45   107    1
   107    46    48    1
   108    46   108    1
   109    46   109    1
   110    47    48    1
   111    47   110    1
   112    47   111    1
   113    48    49    1
   114    48   112    1
   115    49   113    1
   116    49   114    1
   117    49   115    1
   118    50    51    1
   119    50   116    1
   120    51    52    1
   121    51   117    1
   122    52    54    1
   123    52   118    1
   124    53    54    1
   125    53    55    1
   126    53   119    1
   127    54   120    1
   128    55   122    1
   129    55   123    1
   130    56    57    1
   131    56   125    1
   132    57    58    1
   133    57   127    1
   134    58    60    1
   135    58   128    1
   136    59    60    1
   137    59    61    1
   138    59   129    1
   139    60   130    1
   140    61   131    1
   141    61   132    1
   142    62    64    1
   143    62   133    1
   144    63    66    1
   145    63   135    1
   146    64    65    1
   147    64   136    1
   148    65    68    1
   149    65   137    1
   150    66    69    1
   151    66   138    1
   152    67    68    1
   153    67    72    1
   154    67   140    1
   155    68   141    1
   156    69    71    1
   157    69   142    1
   158    70    71    1
   159    70   144    1
   160    70   145    1
   161    71   146    1
   162    72   147    1
   163    72   148    1
