@<TRIPOS>MOLECULE
IMPHY015738
 35 34 0 0 0
SMALL
GASTEIGER

@<TRIPOS>ATOM
      1 O           6.3301    0.7500    0.0000 O.3     1  UNL1       -0.4646
      2 O           5.4641   -0.7500    0.0000 O.2     1  UNL1       -0.2509
      3 C           8.9282    0.2500    0.0000 C.3     1  UNL1       -0.0500
      4 C           9.7942    0.7500    0.0000 C.3     1  UNL1       -0.0532
      5 C           8.0622    0.7500    0.0000 C.3     1  UNL1       -0.0185
      6 C          10.6603    0.2500    0.0000 C.3     1  UNL1       -0.0559
      7 C           7.1962    0.2500    0.0000 C.3     1  UNL1        0.0925
      8 C           3.7320    0.2500    0.0000 C.3     1  UNL1       -0.0432
      9 C           4.5981    0.7500    0.0000 C.3     1  UNL1        0.0449
     10 C           2.8660    0.7500    0.0000 C.3     1  UNL1       -0.0554
     11 C          11.5263    0.7500    0.0000 C.3     1  UNL1       -0.0653
     12 C           5.4641    0.2500    0.0000 C.2     1  UNL1        0.3071
     13 C           2.0000    0.2500    0.0000 C.3     1  UNL1       -0.0653
     14 H           8.5297   -0.2249    0.0000 H       1  UNL1        0.0266
     15 H           9.3267   -0.2249    0.0000 H       1  UNL1        0.0266
     16 H          10.1928    1.2250    0.0000 H       1  UNL1        0.0265
     17 H           9.3957    1.2250    0.0000 H       1  UNL1        0.0265
     18 H           8.4607    1.2250    0.0000 H       1  UNL1        0.0298
     19 H           7.6636    1.2250    0.0000 H       1  UNL1        0.0298
     20 H          10.2617   -0.2249    0.0000 H       1  UNL1        0.0263
     21 H          11.0588   -0.2249    0.0000 H       1  UNL1        0.0263
     22 H           6.7976   -0.2249    0.0000 H       1  UNL1        0.0697
     23 H           7.5947   -0.2249    0.0000 H       1  UNL1        0.0697
     24 H           3.3335   -0.2249    0.0000 H       1  UNL1        0.0270
     25 H           4.1306   -0.2249    0.0000 H       1  UNL1        0.0270
     26 H           4.9966    1.2250    0.0000 H       1  UNL1        0.0377
     27 H           4.1996    1.2250    0.0000 H       1  UNL1        0.0377
     28 H           3.2646    1.2250    0.0000 H       1  UNL1        0.0263
     29 H           2.4675    1.2250    0.0000 H       1  UNL1        0.0263
     30 H          11.8363    0.2131    0.0000 H       1  UNL1        0.0230
     31 H          12.0632    1.0600    0.0000 H       1  UNL1        0.0230
     32 H          11.2163    1.2869    0.0000 H       1  UNL1        0.0230
     33 H           1.6900    0.7869    0.0000 H       1  UNL1        0.0230
     34 H           1.4631   -0.0600    0.0000 H       1  UNL1        0.0230
     35 H           2.3100   -0.2869    0.0000 H       1  UNL1        0.0230
@<TRIPOS>BOND
     1     1     7    1
     2     1    12    1
     3     2    12    2
     4     3     4    1
     5     3     5    1
     6     3    14    1
     7     3    15    1
     8     4     6    1
     9     4    16    1
    10     4    17    1
    11     5     7    1
    12     5    18    1
    13     5    19    1
    14     6    11    1
    15     6    20    1
    16     6    21    1
    17     7    22    1
    18     7    23    1
    19     8     9    1
    20     8    10    1
    21     8    24    1
    22     8    25    1
    23     9    12    1
    24     9    26    1
    25     9    27    1
    26    10    13    1
    27    10    28    1
    28    10    29    1
    29    11    30    1
    30    11    31    1
    31    11    32    1
    32    13    33    1
    33    13    34    1
    34    13    35    1
