@<TRIPOS>MOLECULE
IMPHY015882
 45 44 0 0 0
SMALL
GASTEIGER

@<TRIPOS>ATOM
      1 N          14.9904    0.5000    0.0000 N.1     1  UNL1       -0.1966
      2 C           8.0622   -0.5000    0.0000 C.3     1  UNL1       -0.0531
      3 C           7.1962    0.0000    0.0000 C.3     1  UNL1       -0.0531
      4 C           8.9282    0.0000    0.0000 C.3     1  UNL1       -0.0531
      5 C           6.3301   -0.5000    0.0000 C.3     1  UNL1       -0.0531
      6 C           9.7942   -0.5000    0.0000 C.3     1  UNL1       -0.0531
      7 C           5.4641    0.0000    0.0000 C.3     1  UNL1       -0.0531
      8 C          10.6603    0.0000    0.0000 C.3     1  UNL1       -0.0530
      9 C           4.5981   -0.5000    0.0000 C.3     1  UNL1       -0.0531
     10 C          11.5263   -0.5000    0.0000 C.3     1  UNL1       -0.0521
     11 C           3.7320    0.0000    0.0000 C.3     1  UNL1       -0.0533
     12 C          12.3923    0.0000    0.0000 C.3     1  UNL1       -0.0402
     13 C           2.8660   -0.5000    0.0000 C.3     1  UNL1       -0.0559
     14 C          13.2583   -0.5000    0.0000 C.3     1  UNL1        0.0348
     15 C           2.0000    0.0000    0.0000 C.3     1  UNL1       -0.0653
     16 C          14.1244    0.0000    0.0000 C.1     1  UNL1        0.0625
     17 H           7.6636   -0.9749    0.0000 H       1  UNL1        0.0265
     18 H           8.4607   -0.9749    0.0000 H       1  UNL1        0.0265
     19 H           7.5947    0.4749    0.0000 H       1  UNL1        0.0265
     20 H           6.7976    0.4749    0.0000 H       1  UNL1        0.0265
     21 H           9.3267    0.4749    0.0000 H       1  UNL1        0.0265
     22 H           8.5297    0.4749    0.0000 H       1  UNL1        0.0265
     23 H           5.9316   -0.9749    0.0000 H       1  UNL1        0.0265
     24 H           6.7287   -0.9749    0.0000 H       1  UNL1        0.0265
     25 H           9.3957   -0.9749    0.0000 H       1  UNL1        0.0265
     26 H          10.1928   -0.9749    0.0000 H       1  UNL1        0.0265
     27 H           5.8626    0.4749    0.0000 H       1  UNL1        0.0265
     28 H           5.0656    0.4749    0.0000 H       1  UNL1        0.0265
     29 H          11.0588    0.4749    0.0000 H       1  UNL1        0.0265
     30 H          10.2617    0.4749    0.0000 H       1  UNL1        0.0265
     31 H           4.1996   -0.9749    0.0000 H       1  UNL1        0.0265
     32 H           4.9966   -0.9749    0.0000 H       1  UNL1        0.0265
     33 H          11.1278   -0.9749    0.0000 H       1  UNL1        0.0266
     34 H          11.9248   -0.9749    0.0000 H       1  UNL1        0.0266
     35 H           4.1306    0.4749    0.0000 H       1  UNL1        0.0265
     36 H           3.3335    0.4749    0.0000 H       1  UNL1        0.0265
     37 H          12.7908    0.4749    0.0000 H       1  UNL1        0.0275
     38 H          11.9938    0.4749    0.0000 H       1  UNL1        0.0275
     39 H           2.4675   -0.9749    0.0000 H       1  UNL1        0.0263
     40 H           3.2646   -0.9749    0.0000 H       1  UNL1        0.0263
     41 H          12.8598   -0.9749    0.0000 H       1  UNL1        0.0418
     42 H          13.6569   -0.9749    0.0000 H       1  UNL1        0.0418
     43 H           2.3100    0.5369    0.0000 H       1  UNL1        0.0230
     44 H           1.4631    0.3100    0.0000 H       1  UNL1        0.0230
     45 H           1.6900   -0.5369    0.0000 H       1  UNL1        0.0230
@<TRIPOS>BOND
     1     1    16    3
     2     2     3    1
     3     2     4    1
     4     2    17    1
     5     2    18    1
     6     3     5    1
     7     3    19    1
     8     3    20    1
     9     4     6    1
    10     4    21    1
    11     4    22    1
    12     5     7    1
    13     5    23    1
    14     5    24    1
    15     6     8    1
    16     6    25    1
    17     6    26    1
    18     7     9    1
    19     7    27    1
    20     7    28    1
    21     8    10    1
    22     8    29    1
    23     8    30    1
    24     9    11    1
    25     9    31    1
    26     9    32    1
    27    10    12    1
    28    10    33    1
    29    10    34    1
    30    11    13    1
    31    11    35    1
    32    11    36    1
    33    12    14    1
    34    12    37    1
    35    12    38    1
    36    13    15    1
    37    13    39    1
    38    13    40    1
    39    14    16    1
    40    14    41    1
    41    14    42    1
    42    15    43    1
    43    15    44    1
    44    15    45    1
