@<TRIPOS>MOLECULE
IMPHY003370
 34 35 0 0 0
SMALL
GASTEIGER

@<TRIPOS>ATOM
      1 O           2.8660   -0.1311    0.0000 O.3     1  UNL1       -0.4951
      2 N           6.4103   -1.9358    0.0000 N.ar    1  UNL1       -0.3604
      3 N           8.0102    1.7809    0.0000 N.3     1  UNL1       -0.3080
      4 C           6.4103   -0.3264    0.0000 C.ar    1  UNL1       -0.0210
      5 C           6.7210    0.6241    0.0000 C.3     1  UNL1       -0.0129
      6 C           5.4641   -0.6311    0.0000 C.ar    1  UNL1        0.0063
      7 C           7.6995    0.8304    0.0000 C.3     1  UNL1        0.0024
      8 C           5.4641   -1.6311    0.0000 C.ar    1  UNL1        0.0470
      9 C           6.9939   -1.1311    0.0000 C.ar    1  UNL1        0.0059
     10 C           4.5981   -0.1311    0.0000 C.ar    1  UNL1       -0.0105
     11 C           4.5981   -2.1311    0.0000 C.ar    1  UNL1       -0.0343
     12 C           3.7320   -0.6311    0.0000 C.ar    1  UNL1        0.1208
     13 C           3.7320   -1.6311    0.0000 C.ar    1  UNL1       -0.0180
     14 C           8.9887    1.9871    0.0000 C.3     1  UNL1       -0.0130
     15 C           7.3423    2.5252    0.0000 C.3     1  UNL1       -0.0130
     16 C           2.0000   -0.6311    0.0000 C.3     1  UNL1        0.0788
     17 H           6.7004    1.2438    0.0000 H       1  UNL1        0.0326
     18 H           6.1072    0.7115    0.0000 H       1  UNL1        0.0326
     19 H           7.7201    0.2107    0.0000 H       1  UNL1        0.0429
     20 H           8.3133    0.7430    0.0000 H       1  UNL1        0.0429
     21 H           7.6139   -1.1311    0.0000 H       1  UNL1        0.0810
     22 H           6.6029   -2.5252    0.0000 H       1  UNL1        0.1653
     23 H           4.5981    0.4889    0.0000 H       1  UNL1        0.0661
     24 H           4.5981   -2.7511    0.0000 H       1  UNL1        0.0639
     25 H           3.1951   -1.9411    0.0000 H       1  UNL1        0.0655
     26 H           9.1165    1.3804    0.0000 H       1  UNL1        0.0391
     27 H           9.5953    2.1150    0.0000 H       1  UNL1        0.0391
     28 H           8.8608    2.5938    0.0000 H       1  UNL1        0.0391
     29 H           7.8038    2.9392    0.0000 H       1  UNL1        0.0391
     30 H           6.9282    2.9866    0.0000 H       1  UNL1        0.0391
     31 H           6.8808    2.1111    0.0000 H       1  UNL1        0.0391
     32 H           1.6900   -0.0942    0.0000 H       1  UNL1        0.0660
     33 H           1.4631   -0.9411    0.0000 H       1  UNL1        0.0660
     34 H           2.3100   -1.1680    0.0000 H       1  UNL1        0.0660
@<TRIPOS>BOND
     1     1    12    1
     2     1    16    1
     3     2     8   ar
     4     2     9   ar
     5     2    22    1
     6     3     7    1
     7     3    14    1
     8     3    15    1
     9     4     5    1
    10     4     6   ar
    11     4     9   ar
    12     5     7    1
    13     5    17    1
    14     5    18    1
    15     6     8   ar
    16     6    10   ar
    17     7    19    1
    18     7    20    1
    19     8    11   ar
    20     9    21    1
    21    10    12   ar
    22    10    23    1
    23    11    13   ar
    24    11    24    1
    25    12    13   ar
    26    13    25    1
    27    14    26    1
    28    14    27    1
    29    14    28    1
    30    15    29    1
    31    15    30    1
    32    15    31    1
    33    16    32    1
    34    16    33    1
    35    16    34    1
