@<TRIPOS>MOLECULE
IMPHY014681
 66 70 0 0 0
SMALL
GASTEIGER

@<TRIPOS>ATOM
      1 O           5.2671   -2.7434    0.0000 O.3     1  UNL1       -0.4862
      2 O           4.6194    1.4665    0.0000 O.3     1  UNL1       -0.4530
      3 O           8.5570   -0.1645    0.0000 O.3     1  UNL1       -0.3872
      4 O           2.8824   -2.4669    0.0000 O.3     1  UNL1       -0.4489
      5 O           2.2408   -0.9180    0.0000 O.3     1  UNL1       -0.4525
      6 O           4.6754   -2.6594    0.0000 O.2     1  UNL1       -0.2873
      7 O           5.5072   -3.9671    0.0000 O.2     1  UNL1       -0.4886
      8 O           7.5231   -3.8881    0.0000 O.2     1  UNL1       -0.4913
      9 O           5.8442    2.6912    0.0000 O.2     1  UNL1       -0.2453
     10 C           6.2504   -1.4711    0.0000 C.3     1  UNL1        0.1229
     11 C           7.1743    0.7594    0.0000 C.3     1  UNL1       -0.0076
     12 C           6.2504    1.1421    0.0000 C.3     1  UNL1        0.0028
     13 C           5.3266   -1.0884    0.0000 C.ar    1  UNL1        0.0260
     14 C           7.1743   -1.0884    0.0000 C.2     1  UNL1       -0.0163
     15 C           7.5570   -0.1645    0.0000 C.3     1  UNL1        0.0809
     16 C           5.3266    0.7594    0.0000 C.3     1  UNL1        0.1317
     17 C           4.9439   -0.1645    0.0000 C.ar    1  UNL1        0.0047
     18 C           6.2202   -2.4638    0.0000 C.3     1  UNL1        0.1105
     19 C           4.7053   -1.9244    0.0000 C.ar    1  UNL1        0.1707
     20 C           5.6037   -2.2876    0.0000 C.2     1  UNL1        0.2188
     21 C           7.8814    1.4665    0.0000 C.3     1  UNL1       -0.0594
     22 C           6.2504    2.1421    0.0000 C.3     1  UNL1       -0.0584
     23 C           7.5877   -2.0444    0.0000 C.2     1  UNL1       -0.0131
     24 C           3.9134   -0.0126    0.0000 C.ar    1  UNL1       -0.0089
     25 C           3.6715   -1.7964    0.0000 C.ar    1  UNL1        0.2079
     26 C           5.9723   -3.0819    0.0000 C.2     1  UNL1        0.2056
     27 C           3.2729   -0.8341    0.0000 C.ar    1  UNL1        0.1703
     28 C           6.9825   -3.0468    0.0000 C.2     1  UNL1        0.1651
     29 C           2.0000   -1.9251    0.0000 C.3     1  UNL1        0.2334
     30 C           4.8783    2.4324    0.0000 C.2     1  UNL1        0.3351
     31 C           4.1712    3.1395    0.0000 C.2     1  UNL1        0.0294
     32 C           6.0412   -4.8126    0.0000 C.3     1  UNL1        0.0791
     33 C           8.5219   -3.8406    0.0000 C.3     1  UNL1        0.0790
     34 C           3.2052    2.8807    0.0000 C.3     1  UNL1       -0.0333
     35 C           4.4300    4.1054    0.0000 C.2     1  UNL1       -0.0774
     36 C           3.7229    4.8126    0.0000 C.3     1  UNL1       -0.0461
     37 H           7.7824    0.6384    0.0000 H       1  UNL1        0.0330
     38 H           6.7659    1.4865    0.0000 H       1  UNL1        0.0341
     39 H           7.9014   -0.6800    0.0000 H       1  UNL1        0.0643
     40 H           4.7185    0.6384    0.0000 H       1  UNL1        0.0788
     41 H           6.3312   -3.0738    0.0000 H       1  UNL1        0.0713
     42 H           6.8384   -2.4175    0.0000 H       1  UNL1        0.0713
     43 H           8.3198    1.0281    0.0000 H       1  UNL1        0.0233
     44 H           8.3198    1.9049    0.0000 H       1  UNL1        0.0233
     45 H           7.4430    1.9049    0.0000 H       1  UNL1        0.0233
     46 H           6.8704    2.1421    0.0000 H       1  UNL1        0.0234
     47 H           6.2504    2.7621    0.0000 H       1  UNL1        0.0234
     48 H           5.6304    2.1421    0.0000 H       1  UNL1        0.0234
     49 H           8.2063   -2.0863    0.0000 H       1  UNL1        0.0656
     50 H           3.6827    0.5629    0.0000 H       1  UNL1        0.0659
     51 H           8.8670    0.3724    0.0000 H       1  UNL1        0.2102
     52 H           1.4155   -1.7183    0.0000 H       1  UNL1        0.1166
     53 H           1.7329   -2.4846    0.0000 H       1  UNL1        0.1166
     54 H           5.5170   -5.1437    0.0000 H       1  UNL1        0.0660
     55 H           6.3723   -5.3367    0.0000 H       1  UNL1        0.0660
     56 H           6.5654   -4.4814    0.0000 H       1  UNL1        0.0660
     57 H           8.5514   -4.4599    0.0000 H       1  UNL1        0.0660
     58 H           9.1412   -3.8112    0.0000 H       1  UNL1        0.0660
     59 H           8.4925   -3.2213    0.0000 H       1  UNL1        0.0660
     60 H           3.0448    3.4796    0.0000 H       1  UNL1        0.0280
     61 H           2.6064    2.7202    0.0000 H       1  UNL1        0.0280
     62 H           3.3657    2.2818    0.0000 H       1  UNL1        0.0280
     63 H           5.0288    4.2659    0.0000 H       1  UNL1        0.0574
     64 H           4.1613    5.2510    0.0000 H       1  UNL1        0.0272
     65 H           3.2845    5.2510    0.0000 H       1  UNL1        0.0272
     66 H           3.2845    4.3742    0.0000 H       1  UNL1        0.0272
@<TRIPOS>BOND
     1     1    18    1
     2     1    19    1
     3     2    16    1
     4     2    30    1
     5     3    15    1
     6     3    51    1
     7     4    25    1
     8     4    29    1
     9     5    27    1
    10     5    29    1
    11     6    20    2
    12     7    26    1
    13     7    32    1
    14     8    28    1
    15     8    33    1
    16     9    30    2
    17    10    13    1
    18    10    14    1
    19    10    18    1
    20    10    20    1
    21    11    12    1
    22    11    15    1
    23    11    21    1
    24    11    37    1
    25    12    16    1
    26    12    22    1
    27    12    38    1
    28    13    17   ar
    29    13    19   ar
    30    14    15    1
    31    14    23    2
    32    15    39    1
    33    16    17    1
    34    16    40    1
    35    17    24   ar
    36    18    41    1
    37    18    42    1
    38    19    25   ar
    39    20    26    1
    40    21    43    1
    41    21    44    1
    42    21    45    1
    43    22    46    1
    44    22    47    1
    45    22    48    1
    46    23    28    1
    47    23    49    1
    48    24    27   ar
    49    24    50    1
    50    25    27   ar
    51    26    28    2
    52    29    52    1
    53    29    53    1
    54    30    31    1
    55    31    34    1
    56    31    35    2
    57    32    54    1
    58    32    55    1
    59    32    56    1
    60    33    57    1
    61    33    58    1
    62    33    59    1
    63    34    60    1
    64    34    61    1
    65    34    62    1
    66    35    36    1
    67    35    63    1
    68    36    64    1
    69    36    65    1
    70    36    66    1
