@<TRIPOS>MOLECULE
IMPHY004471
 64 64 0 0 0
SMALL
GASTEIGER

@<TRIPOS>ATOM
      1 O          14.1244    1.2500    0.0000 O.3     1  UNL1       -0.5031
      2 O          15.8564    0.2500    0.0000 O.3     1  UNL1       -0.4913
      3 O          14.1244   -2.7500    0.0000 O.3     1  UNL1       -0.4950
      4 C           8.9282    0.2500    0.0000 C.3     1  UNL1       -0.0531
      5 C           9.7942   -0.2500    0.0000 C.3     1  UNL1       -0.0530
      6 C           8.0622   -0.2500    0.0000 C.3     1  UNL1       -0.0530
      7 C          10.6603    0.2500    0.0000 C.3     1  UNL1       -0.0528
      8 C           7.1962    0.2500    0.0000 C.3     1  UNL1       -0.0528
      9 C          11.5263   -0.2500    0.0000 C.3     1  UNL1       -0.0489
     10 C           6.3301   -0.2500    0.0000 C.3     1  UNL1       -0.0496
     11 C          12.3923    0.2500    0.0000 C.3     1  UNL1       -0.0240
     12 C           5.4641    0.2500    0.0000 C.3     1  UNL1       -0.0348
     13 C          13.2583   -0.2500    0.0000 C.ar    1  UNL1        0.0012
     14 C           4.5981   -0.2500    0.0000 C.2     1  UNL1       -0.0879
     15 C          14.1244    0.2500    0.0000 C.ar    1  UNL1        0.1619
     16 C          13.2583   -1.2500    0.0000 C.ar    1  UNL1       -0.0131
     17 C           3.7320    1.2500    0.0000 C.3     1  UNL1       -0.0348
     18 C           3.7320    0.2500    0.0000 C.2     1  UNL1       -0.0879
     19 C           2.8660    1.7500    0.0000 C.3     1  UNL1       -0.0499
     20 C          14.9904   -0.2500    0.0000 C.ar    1  UNL1        0.1650
     21 C          14.1244   -1.7500    0.0000 C.ar    1  UNL1        0.1241
     22 C          14.9904   -1.2500    0.0000 C.ar    1  UNL1        0.0254
     23 C           2.8660    2.7500    0.0000 C.3     1  UNL1       -0.0556
     24 C           2.0000    3.2500    0.0000 C.3     1  UNL1       -0.0653
     25 C          16.7224   -0.2500    0.0000 C.3     1  UNL1        0.0790
     26 C          13.2583   -3.2500    0.0000 C.3     1  UNL1        0.0788
     27 H           9.3267    0.7249    0.0000 H       1  UNL1        0.0265
     28 H           8.5297    0.7249    0.0000 H       1  UNL1        0.0265
     29 H           9.3957   -0.7249    0.0000 H       1  UNL1        0.0265
     30 H          10.1928   -0.7249    0.0000 H       1  UNL1        0.0265
     31 H           7.6636   -0.7249    0.0000 H       1  UNL1        0.0265
     32 H           8.4607   -0.7249    0.0000 H       1  UNL1        0.0265
     33 H          11.0588    0.7249    0.0000 H       1  UNL1        0.0265
     34 H          10.2617    0.7249    0.0000 H       1  UNL1        0.0265
     35 H           7.5947    0.7249    0.0000 H       1  UNL1        0.0265
     36 H           6.7976    0.7249    0.0000 H       1  UNL1        0.0265
     37 H          11.1278   -0.7249    0.0000 H       1  UNL1        0.0268
     38 H          11.9248   -0.7249    0.0000 H       1  UNL1        0.0268
     39 H           5.9316   -0.7249    0.0000 H       1  UNL1        0.0268
     40 H           6.7287   -0.7249    0.0000 H       1  UNL1        0.0268
     41 H          12.7908    0.7249    0.0000 H       1  UNL1        0.0314
     42 H          11.9938    0.7249    0.0000 H       1  UNL1        0.0314
     43 H           5.8626    0.7249    0.0000 H       1  UNL1        0.0307
     44 H           5.0656    0.7249    0.0000 H       1  UNL1        0.0307
     45 H           4.5981   -0.8700    0.0000 H       1  UNL1        0.0569
     46 H          12.7214   -1.5600    0.0000 H       1  UNL1        0.0658
     47 H           4.3426    1.1423    0.0000 H       1  UNL1        0.0307
     48 H           3.9441    1.8326    0.0000 H       1  UNL1        0.0307
     49 H           3.1951   -0.0600    0.0000 H       1  UNL1        0.0569
     50 H           2.2554    1.8577    0.0000 H       1  UNL1        0.0268
     51 H           2.6540    1.1674    0.0000 H       1  UNL1        0.0268
     52 H           3.4766    2.6423    0.0000 H       1  UNL1        0.0263
     53 H           3.0781    3.3326    0.0000 H       1  UNL1        0.0263
     54 H          15.5273   -1.5600    0.0000 H       1  UNL1        0.0692
     55 H          14.6613    1.5600    0.0000 H       1  UNL1        0.2923
     56 H           2.3100    3.7869    0.0000 H       1  UNL1        0.0230
     57 H           1.4631    3.5600    0.0000 H       1  UNL1        0.0230
     58 H           1.6900    2.7131    0.0000 H       1  UNL1        0.0230
     59 H          16.4124   -0.7869    0.0000 H       1  UNL1        0.0660
     60 H          17.2594   -0.5600    0.0000 H       1  UNL1        0.0660
     61 H          17.0324    0.2869    0.0000 H       1  UNL1        0.0660
     62 H          12.9483   -2.7131    0.0000 H       1  UNL1        0.0660
     63 H          12.7214   -3.5600    0.0000 H       1  UNL1        0.0660
     64 H          13.5683   -3.7869    0.0000 H       1  UNL1        0.0660
@<TRIPOS>BOND
     1     1    15    1
     2     1    55    1
     3     2    20    1
     4     2    25    1
     5     3    21    1
     6     3    26    1
     7     4     5    1
     8     4     6    1
     9     4    27    1
    10     4    28    1
    11     5     7    1
    12     5    29    1
    13     5    30    1
    14     6     8    1
    15     6    31    1
    16     6    32    1
    17     7     9    1
    18     7    33    1
    19     7    34    1
    20     8    10    1
    21     8    35    1
    22     8    36    1
    23     9    11    1
    24     9    37    1
    25     9    38    1
    26    10    12    1
    27    10    39    1
    28    10    40    1
    29    11    13    1
    30    11    41    1
    31    11    42    1
    32    12    14    1
    33    12    43    1
    34    12    44    1
    35    13    15   ar
    36    13    16   ar
    37    14    18    2
    38    14    45    1
    39    15    20   ar
    40    16    21   ar
    41    16    46    1
    42    17    18    1
    43    17    19    1
    44    17    47    1
    45    17    48    1
    46    18    49    1
    47    19    23    1
    48    19    50    1
    49    19    51    1
    50    20    22   ar
    51    21    22   ar
    52    22    54    1
    53    23    24    1
    54    23    52    1
    55    23    53    1
    56    24    56    1
    57    24    57    1
    58    24    58    1
    59    25    59    1
    60    25    60    1
    61    25    61    1
    62    26    62    1
    63    26    63    1
    64    26    64    1
