@<TRIPOS>MOLECULE
IMPHY010205
 20 20 0 0 0
SMALL
GASTEIGER

@<TRIPOS>ATOM
      1 O           2.5369    0.0000    0.0000 O.3     1  LYS1       -0.4795
      2 OXT         3.4030   -1.5000    0.0000 O.2     1  LYS1       -0.2492
      3 N           5.1350   -0.5000    0.0000 N.3     1  LYS1       -0.3041
      4 CB          4.2690    1.0000    0.0000 C.3     1  LYS1       -0.0271
      5 CA          4.2690    0.0000    0.0000 C.3     1  LYS1        0.1057
      6 CG          5.1350    1.5000    0.0000 C.3     1  LYS1       -0.0500
      7 CD          6.0010    1.0000    0.0000 C.3     1  LYS1       -0.0404
      8 CE          6.0010    0.0000    0.0000 C.3     1  LYS1       -0.0034
      9 C           3.4030   -0.5000    0.0000 C.2     1  LYS1        0.3219
     10 HB1         4.0569    1.5826    0.0000 H       1  LYS1        0.0286
     11 HB2         3.6584    0.8923    0.0000 H       1  LYS1        0.0286
     12 HA          4.2690   -0.8500    0.0000 H       1  LYS1        0.0576
     13 HG1         5.5335    1.9750    0.0000 H       1  LYS1        0.0266
     14 HG2         4.7365    1.9750    0.0000 H       1  LYS1        0.0266
     15 HD1         6.6116    0.8923    0.0000 H       1  LYS1        0.0277
     16 HD2         6.2131    1.5826    0.0000 H       1  LYS1        0.0277
     17 HE1         6.2131   -0.5826    0.0000 H       1  LYS1        0.0424
     18 HE2         6.6116    0.1077    0.0000 H       1  LYS1        0.0424
     19 H           5.1350   -1.1200    0.0000 H       1  LYS1        0.1227
     20 H           2.0000   -0.3100    0.0000 H       1  LYS1        0.2951
@<TRIPOS>BOND
     1     1     9    1
     2     1    20    1
     3     2     9    2
     4     3     5    1
     5     3     8    1
     6     3    19    1
     7     4     5    1
     8     4     6    1
     9     4    10    1
    10     4    11    1
    11     5     9    1
    12     5    12    1
    13     6     7    1
    14     6    13    1
    15     6    14    1
    16     7     8    1
    17     7    15    1
    18     7    16    1
    19     8    17    1
    20     8    18    1
