@<TRIPOS>MOLECULE
IMPHY006269
 29 28 0 0 0
SMALL
GASTEIGER

@<TRIPOS>ATOM
      1 C           5.4641    0.4400    0.0000 C.3     1  UNL1       -0.0283
      2 C           6.3301   -0.0600    0.0000 C.3     1  UNL1       -0.0308
      3 C           4.5981   -0.0600    0.0000 C.2     1  UNL1       -0.0723
      4 C           7.1962    0.4400    0.0000 C.2     1  UNL1       -0.0850
      5 C           8.0622   -0.0600    0.0000 C.2     1  UNL1       -0.0796
      6 C           4.5981   -1.0600    0.0000 C.3     1  UNL1       -0.0435
      7 C           3.7320    0.4400    0.0000 C.2     1  UNL1       -0.0633
      8 C           8.9282    0.4400    0.0000 C.3     1  UNL1       -0.0440
      9 C           8.0622   -1.0600    0.0000 C.3     1  UNL1       -0.0440
     10 C           2.8660   -0.0600    0.0000 C.2     1  UNL1       -0.0689
     11 C           2.0000    0.4400    0.0000 C.2     1  UNL1       -0.0987
     12 H           5.8626    0.9149    0.0000 H       1  UNL1        0.0313
     13 H           5.0656    0.9149    0.0000 H       1  UNL1        0.0313
     14 H           5.9316   -0.5349    0.0000 H       1  UNL1        0.0310
     15 H           6.7287   -0.5349    0.0000 H       1  UNL1        0.0310
     16 H           7.1962    1.0600    0.0000 H       1  UNL1        0.0572
     17 H           3.9781   -1.0600    0.0000 H       1  UNL1        0.0274
     18 H           4.5981   -1.6800    0.0000 H       1  UNL1        0.0274
     19 H           5.2181   -1.0600    0.0000 H       1  UNL1        0.0274
     20 H           3.7320    1.0600    0.0000 H       1  UNL1        0.0617
     21 H           9.2382   -0.0969    0.0000 H       1  UNL1        0.0274
     22 H           9.4651    0.7500    0.0000 H       1  UNL1        0.0274
     23 H           8.6182    0.9769    0.0000 H       1  UNL1        0.0274
     24 H           7.4422   -1.0600    0.0000 H       1  UNL1        0.0274
     25 H           8.0622   -1.6800    0.0000 H       1  UNL1        0.0274
     26 H           8.6822   -1.0600    0.0000 H       1  UNL1        0.0274
     27 H           2.8660   -0.6800    0.0000 H       1  UNL1        0.0612
     28 H           2.0000    1.0600    0.0000 H       1  UNL1        0.0535
     29 H           1.4631    0.1300    0.0000 H       1  UNL1        0.0535
@<TRIPOS>BOND
     1     1     2    1
     2     1     3    1
     3     1    12    1
     4     1    13    1
     5     2     4    1
     6     2    14    1
     7     2    15    1
     8     3     6    1
     9     3     7    2
    10     4     5    2
    11     4    16    1
    12     5     8    1
    13     5     9    1
    14     6    17    1
    15     6    18    1
    16     6    19    1
    17     7    10    1
    18     7    20    1
    19     8    21    1
    20     8    22    1
    21     8    23    1
    22     9    24    1
    23     9    25    1
    24     9    26    1
    25    10    11    2
    26    10    27    1
    27    11    28    1
    28    11    29    1
