@<TRIPOS>MOLECULE
IMPHY008689
 51 54 0 0 0
SMALL
GASTEIGER

@<TRIPOS>ATOM
      1 O           5.1350   -0.1379    0.0000 O.3     1  UNL1       -0.3609
      2 O           6.8671    1.8621    0.0000 O.3     1  UNL1       -0.3862
      3 O           5.1350    2.8621    0.0000 O.3     1  UNL1       -0.3865
      4 O           3.4030    1.8621    0.0000 O.3     1  UNL1       -0.3865
      5 O           2.5369    0.3621    0.0000 O.3     1  UNL1       -0.3924
      6 O           7.7331    1.3621    0.0000 O.3     1  UNL1       -0.5054
      7 O           6.0010   -1.6379    0.0000 O.3     1  UNL1       -0.5062
      8 O           9.4931   -1.6726    0.0000 O.2     1  UNL1       -0.4544
      9 O           9.4815    1.3967    0.0000 O.2     1  UNL1       -0.2869
     10 O          13.8555   -3.1721    0.0000 O.3     1  UNL1       -0.5068
     11 C           6.0010    1.3621    0.0000 C.3     1  UNL1        0.1139
     12 C           5.1350    1.8621    0.0000 C.3     1  UNL1        0.1121
     13 C           6.0010    0.3621    0.0000 C.3     1  UNL1        0.1193
     14 C           4.2690    1.3621    0.0000 C.3     1  UNL1        0.1117
     15 C           4.2690    0.3621    0.0000 C.3     1  UNL1        0.1108
     16 C           6.8671   -0.1379    0.0000 C.ar    1  UNL1        0.0673
     17 C           3.4030   -0.1379    0.0000 C.3     1  UNL1        0.0729
     18 C           7.7331    0.3621    0.0000 C.ar    1  UNL1        0.1404
     19 C           6.8671   -1.1379    0.0000 C.ar    1  UNL1        0.1296
     20 C           8.5991   -0.1379    0.0000 C.ar    1  UNL1        0.1058
     21 C           7.7331   -1.6379    0.0000 C.ar    1  UNL1        0.0235
     22 C           8.5991   -1.1379    0.0000 C.ar    1  UNL1        0.1463
     23 C           9.4931    0.3967    0.0000 C.ar    1  UNL1        0.1966
     24 C          10.3991   -1.1587    0.0000 C.ar    1  UNL1        0.1392
     25 C          10.3991   -0.1171    0.0000 C.ar    1  UNL1        0.0288
     26 C          11.2632   -1.6621    0.0000 C.ar    1  UNL1        0.0176
     27 C          11.2594   -2.6621    0.0000 C.ar    1  UNL1       -0.0476
     28 C          12.1312   -1.1654    0.0000 C.ar    1  UNL1       -0.0476
     29 C          12.1235   -3.1654    0.0000 C.ar    1  UNL1       -0.0195
     30 C          12.9953   -1.6688    0.0000 C.ar    1  UNL1       -0.0195
     31 C          12.9914   -2.6687    0.0000 C.ar    1  UNL1        0.1169
     32 H           6.5380    1.0521    0.0000 H       1  UNL1        0.0649
     33 H           5.6720    2.1721    0.0000 H       1  UNL1        0.0647
     34 H           6.0010   -0.4879    0.0000 H       1  UNL1        0.0676
     35 H           4.2690    1.9821    0.0000 H       1  UNL1        0.0647
     36 H           4.2690   -0.2579    0.0000 H       1  UNL1        0.0646
     37 H           3.0044   -0.6129    0.0000 H       1  UNL1        0.0584
     38 H           3.8015   -0.6129    0.0000 H       1  UNL1        0.0584
     39 H           6.8671    2.4821    0.0000 H       1  UNL1        0.2100
     40 H           4.5981    3.1721    0.0000 H       1  UNL1        0.2100
     41 H           3.4030    2.4821    0.0000 H       1  UNL1        0.2100
     42 H           7.7331   -2.2579    0.0000 H       1  UNL1        0.0691
     43 H           2.0000    0.0521    0.0000 H       1  UNL1        0.2095
     44 H           8.2700    1.6721    0.0000 H       1  UNL1        0.2922
     45 H           6.0010   -2.2579    0.0000 H       1  UNL1        0.2922
     46 H          10.9349    0.1950    0.0000 H       1  UNL1        0.0693
     47 H          10.7212   -2.9700    0.0000 H       1  UNL1        0.0626
     48 H          12.1336   -0.5454    0.0000 H       1  UNL1        0.0626
     49 H          12.1211   -3.7854    0.0000 H       1  UNL1        0.0654
     50 H          13.5334   -1.3608    0.0000 H       1  UNL1        0.0654
     51 H          14.3936   -2.8642    0.0000 H       1  UNL1        0.2921
@<TRIPOS>BOND
     1     1    13    1
     2     1    15    1
     3    11     2    1
     4     2    39    1
     5    12     3    1
     6     3    40    1
     7    14     4    1
     8     4    41    1
     9     5    17    1
    10     5    43    1
    11     6    18    1
    12     6    44    1
    13     7    19    1
    14     7    45    1
    15     8    22   ar
    16     8    24   ar
    17     9    23    2
    18    10    31    1
    19    10    51    1
    20    11    12    1
    21    11    13    1
    22    11    32    1
    23    12    14    1
    24    12    33    1
    25    13    16    1
    26    13    34    1
    27    14    15    1
    28    14    35    1
    29    15    17    1
    30    15    36    1
    31    16    18   ar
    32    16    19   ar
    33    17    37    1
    34    17    38    1
    35    18    20   ar
    36    19    21   ar
    37    20    22   ar
    38    20    23   ar
    39    21    22   ar
    40    21    42    1
    41    23    25   ar
    42    24    25   ar
    43    24    26    1
    44    25    46    1
    45    26    27   ar
    46    26    28   ar
    47    27    29   ar
    48    27    47    1
    49    28    30   ar
    50    28    48    1
    51    29    31   ar
    52    29    49    1
    53    30    31   ar
    54    30    50    1
