@<TRIPOS>MOLECULE
IMPHY001677
 44 49 0 0 0
SMALL
GASTEIGER

@<TRIPOS>ATOM
      1 O           5.5161    1.8368    0.0000 O.3     1  UNL1       -0.3576
      2 O           4.5732    3.5673    0.0000 O.3     1  UNL1       -0.4522
      3 O           3.1278    4.4167    0.0000 O.3     1  UNL1       -0.4526
      4 O           5.5740   -3.5278    0.0000 O.3     1  UNL1       -0.4526
      5 O           4.0684   -4.4125    0.0000 O.3     1  UNL1       -0.4526
      6 N           4.6501    0.3368    0.0000 N.pl3   1  UNL1       -0.3030
      7 C           4.6501    1.3368    0.0000 C.3     1  UNL1        0.1547
      8 C           3.7841   -0.1632    0.0000 C.ar    1  UNL1        0.0473
      9 C           3.7841    1.8368    0.0000 C.ar    1  UNL1        0.0524
     10 C           2.9180    0.3368    0.0000 C.ar    1  UNL1        0.0043
     11 C           2.9180    1.3368    0.0000 C.ar    1  UNL1       -0.0051
     12 C           3.8001   -1.2047    0.0000 C.ar    1  UNL1        0.0075
     13 C           3.8001    2.8783    0.0000 C.ar    1  UNL1        0.1740
     14 C           2.9021   -1.7324    0.0000 C.ar    1  UNL1       -0.0124
     15 C           2.0080   -0.1700    0.0000 C.ar    1  UNL1       -0.0517
     16 C           2.0080    1.8437    0.0000 C.ar    1  UNL1       -0.0499
     17 C           5.5161   -0.1632    0.0000 C.3     1  UNL1        0.0034
     18 C           2.9021    3.4061    0.0000 C.ar    1  UNL1        0.1667
     19 C           2.0000   -1.2116    0.0000 C.ar    1  UNL1       -0.0532
     20 C           4.7520   -1.7253    0.0000 C.ar    1  UNL1       -0.0066
     21 C           2.0000    2.8853    0.0000 C.ar    1  UNL1       -0.0155
     22 C           2.8937   -2.8174    0.0000 C.ar    1  UNL1       -0.0084
     23 C           4.7688   -2.8102    0.0000 C.ar    1  UNL1        0.1669
     24 C           3.8334   -3.3599    0.0000 C.ar    1  UNL1        0.1668
     25 C           4.1585    4.5161    0.0000 C.3     1  UNL1        0.2332
     26 C           6.3821    1.3368    0.0000 C.3     1  UNL1        0.0391
     27 C           5.1420   -4.5161    0.0000 C.3     1  UNL1        0.2332
     28 H           4.6501    1.9568    0.0000 H       1  UNL1        0.0864
     29 H           1.4747    0.1462    0.0000 H       1  UNL1        0.0624
     30 H           1.4747    1.5275    0.0000 H       1  UNL1        0.0625
     31 H           5.2061   -0.7001    0.0000 H       1  UNL1        0.0429
     32 H           6.0530   -0.4732    0.0000 H       1  UNL1        0.0429
     33 H           5.8261    0.3738    0.0000 H       1  UNL1        0.0429
     34 H           1.4619   -1.5195    0.0000 H       1  UNL1        0.0624
     35 H           5.2829   -1.4050    0.0000 H       1  UNL1        0.0662
     36 H           1.4619    3.1932    0.0000 H       1  UNL1        0.0655
     37 H           2.3556   -3.1253    0.0000 H       1  UNL1        0.0661
     38 H           4.7495    4.7033    0.0000 H       1  UNL1        0.1166
     39 H           4.0344    5.1235    0.0000 H       1  UNL1        0.1166
     40 H           6.0721    0.7999    0.0000 H       1  UNL1        0.0524
     41 H           6.9191    1.0268    0.0000 H       1  UNL1        0.0524
     42 H           6.6921    1.8738    0.0000 H       1  UNL1        0.0524
     43 H           5.0180   -5.1235    0.0000 H       1  UNL1        0.1166
     44 H           5.7331   -4.7033    0.0000 H       1  UNL1        0.1166
@<TRIPOS>BOND
     1     1     7    1
     2     1    26    1
     3     2    13    1
     4     2    25    1
     5     3    18    1
     6     3    25    1
     7     4    23    1
     8     4    27    1
     9     5    24    1
    10     5    27    1
    11     6     7    1
    12     6     8    1
    13     6    17    1
    14     7     9    1
    15     7    28    1
    16     8    10   ar
    17     8    12   ar
    18     9    11   ar
    19     9    13   ar
    20    10    11    1
    21    10    15   ar
    22    11    16   ar
    23    12    14   ar
    24    12    20   ar
    25    13    18   ar
    26    14    19   ar
    27    14    22   ar
    28    15    19   ar
    29    15    29    1
    30    16    21   ar
    31    16    30    1
    32    17    31    1
    33    17    32    1
    34    17    33    1
    35    18    21   ar
    36    19    34    1
    37    20    23   ar
    38    20    35    1
    39    21    36    1
    40    22    24   ar
    41    22    37    1
    42    23    24   ar
    43    25    38    1
    44    25    39    1
    45    26    40    1
    46    26    41    1
    47    26    42    1
    48    27    43    1
    49    27    44    1
