@<TRIPOS>MOLECULE
IMPHY009319
 100 104 0 0 0
SMALL
GASTEIGER

@<TRIPOS>ATOM
      1 O           7.6761   -0.7316    0.0000 O.3     1  UNL1       -0.3713
      2 O           4.3638   -0.3715    0.0000 O.3     1  UNL1       -0.3946
      3 O           5.1350   -5.3194    0.0000 O.3     1  UNL1       -0.3313
      4 O           6.8671   -5.3194    0.0000 O.3     1  UNL1       -0.4535
      5 O           5.8239    5.3872    0.0000 O.3     1  UNL1       -0.3313
      6 O           7.4062    4.6827    0.0000 O.3     1  UNL1       -0.4535
      7 O           8.5991   -4.3194    0.0000 O.3     1  UNL1       -0.4913
      8 O           5.1350   -4.3194    0.0000 O.3     1  UNL1       -0.4913
      9 O           6.8671   -7.3194    0.0000 O.3     1  UNL1       -0.3829
     10 O           5.1350   -8.3194    0.0000 O.3     1  UNL1       -0.3864
     11 O           3.4030   -7.3194    0.0000 O.3     1  UNL1       -0.3865
     12 O           7.0441    8.1278    0.0000 O.3     1  UNL1       -0.3864
     13 O           8.2197    6.5098    0.0000 O.3     1  UNL1       -0.3829
     14 O           5.0551    7.9187    0.0000 O.3     1  UNL1       -0.3865
     15 O           5.4172    4.4736    0.0000 O.3     1  UNL1       -0.4913
     16 O           8.5818    3.0646    0.0000 O.3     1  UNL1       -0.4913
     17 O           2.5369   -5.8194    0.0000 O.3     1  UNL1       -0.3924
     18 O           3.6538    6.9007    0.0000 O.3     1  UNL1       -0.3924
     19 C           6.0580   -0.7316    0.0000 C.3     1  UNL1        0.0178
     20 C           6.3671    0.2195    0.0000 C.3     1  UNL1       -0.0060
     21 C           6.8671   -1.3194    0.0000 C.3     1  UNL1        0.0891
     22 C           7.3671    0.2195    0.0000 C.3     1  UNL1        0.0520
     23 C           5.7793    1.0285    0.0000 C.3     1  UNL1       -0.0221
     24 C           5.1070   -1.0406    0.0000 C.3     1  UNL1        0.0500
     25 C           6.8671   -2.3194    0.0000 C.ar    1  UNL1       -0.0114
     26 C           6.1860    1.9420    0.0000 C.ar    1  UNL1       -0.0399
     27 C           6.0010   -2.8194    0.0000 C.ar    1  UNL1       -0.0104
     28 C           7.7331   -2.8194    0.0000 C.ar    1  UNL1       -0.0104
     29 C           7.1805    2.0466    0.0000 C.ar    1  UNL1       -0.0129
     30 C           5.5982    2.7510    0.0000 C.ar    1  UNL1       -0.0129
     31 C           6.0010   -6.8194    0.0000 C.3     1  UNL1        0.1454
     32 C           5.1350   -7.3194    0.0000 C.3     1  UNL1        0.1152
     33 C           6.0010   -5.8194    0.0000 C.3     1  UNL1        0.2311
     34 C           4.2690   -6.8194    0.0000 C.3     1  UNL1        0.1120
     35 C           4.2690   -5.8194    0.0000 C.3     1  UNL1        0.1140
     36 C           6.6374    7.2142    0.0000 C.3     1  UNL1        0.1152
     37 C           7.2252    6.4052    0.0000 C.3     1  UNL1        0.1454
     38 C           7.7331   -3.8194    0.0000 C.ar    1  UNL1        0.1656
     39 C           6.0010   -3.8194    0.0000 C.ar    1  UNL1        0.1656
     40 C           5.6429    7.1097    0.0000 C.3     1  UNL1        0.1120
     41 C           6.8671   -4.3194    0.0000 C.ar    1  UNL1        0.2067
     42 C           6.8184    5.4917    0.0000 C.3     1  UNL1        0.2311
     43 C           5.2361    6.1962    0.0000 C.3     1  UNL1        0.1140
     44 C           6.9995    3.7691    0.0000 C.ar    1  UNL1        0.2067
     45 C           6.0050    3.6646    0.0000 C.ar    1  UNL1        0.1655
     46 C           7.5873    2.9601    0.0000 C.ar    1  UNL1        0.1655
     47 C           3.4030   -5.3194    0.0000 C.3     1  UNL1        0.0731
     48 C           4.2416    6.0916    0.0000 C.3     1  UNL1        0.0731
     49 C           9.4651   -3.8194    0.0000 C.3     1  UNL1        0.0790
     50 C           4.2690   -3.8194    0.0000 C.3     1  UNL1        0.0790
     51 C           4.4227    4.3691    0.0000 C.3     1  UNL1        0.0790
     52 C           9.1696    2.2556    0.0000 C.3     1  UNL1        0.0790
     53 H           5.9611   -1.3440    0.0000 H       1  UNL1        0.0355
     54 H           5.7547    0.1225    0.0000 H       1  UNL1        0.0330
     55 H           7.4195   -1.6009    0.0000 H       1  UNL1        0.0650
     56 H           7.9735    0.3484    0.0000 H       1  UNL1        0.0563
     57 H           7.3022    0.8361    0.0000 H       1  UNL1        0.0563
     58 H           5.2653    1.3752    0.0000 H       1  UNL1        0.0317
     59 H           5.3486    0.5825    0.0000 H       1  UNL1        0.0317
     60 H           4.6184   -1.4223    0.0000 H       1  UNL1        0.0561
     61 H           5.3981   -1.5880    0.0000 H       1  UNL1        0.0561
     62 H           5.4641   -2.5094    0.0000 H       1  UNL1        0.0659
     63 H           8.2700   -2.5094    0.0000 H       1  UNL1        0.0659
     64 H           6.0010   -7.4394    0.0000 H       1  UNL1        0.0683
     65 H           4.5981   -7.6294    0.0000 H       1  UNL1        0.0648
     66 H           7.5450    1.5450    0.0000 H       1  UNL1        0.0658
     67 H           4.9816    2.6862    0.0000 H       1  UNL1        0.0658
     68 H           6.0010   -5.1994    0.0000 H       1  UNL1        0.1084
     69 H           3.7742   -0.5631    0.0000 H       1  UNL1        0.2094
     70 H           3.7320   -6.5094    0.0000 H       1  UNL1        0.0647
     71 H           4.2690   -5.1994    0.0000 H       1  UNL1        0.0647
     72 H           6.2730    7.7158    0.0000 H       1  UNL1        0.0648
     73 H           7.4774    6.9716    0.0000 H       1  UNL1        0.0683
     74 H           5.0263    7.0449    0.0000 H       1  UNL1        0.0647
     75 H           7.4350    5.5565    0.0000 H       1  UNL1        0.1084
     76 H           4.9840    5.6298    0.0000 H       1  UNL1        0.0647
     77 H           3.8015   -4.8444    0.0000 H       1  UNL1        0.0584
     78 H           3.0044   -4.8444    0.0000 H       1  UNL1        0.0584
     79 H           3.6844    5.8198    0.0000 H       1  UNL1        0.0584
     80 H           4.4125    5.4957    0.0000 H       1  UNL1        0.0584
     81 H           7.4040   -7.0094    0.0000 H       1  UNL1        0.2102
     82 H           5.6720   -8.6294    0.0000 H       1  UNL1        0.2100
     83 H           3.4030   -7.9394    0.0000 H       1  UNL1        0.2100
     84 H           6.6797    8.6294    0.0000 H       1  UNL1        0.2100
     85 H           8.4719    7.0762    0.0000 H       1  UNL1        0.2102
     86 H           5.3073    8.4851    0.0000 H       1  UNL1        0.2100
     87 H           2.0000   -5.5094    0.0000 H       1  UNL1        0.2095
     88 H           9.7751   -4.3563    0.0000 H       1  UNL1        0.0660
     89 H          10.0021   -3.5094    0.0000 H       1  UNL1        0.0660
     90 H           9.1551   -3.2824    0.0000 H       1  UNL1        0.0660
     91 H           4.5790   -3.2824    0.0000 H       1  UNL1        0.0660
     92 H           3.7320   -3.5094    0.0000 H       1  UNL1        0.0660
     93 H           3.9590   -4.3563    0.0000 H       1  UNL1        0.0660
     94 H           3.0372    6.8358    0.0000 H       1  UNL1        0.2095
     95 H           4.3578    4.9857    0.0000 H       1  UNL1        0.0660
     96 H           3.8060    4.3043    0.0000 H       1  UNL1        0.0660
     97 H           4.4875    3.7525    0.0000 H       1  UNL1        0.0660
     98 H           8.6680    1.8912    0.0000 H       1  UNL1        0.0660
     99 H           9.5340    1.7540    0.0000 H       1  UNL1        0.0660
    100 H           9.6712    2.6200    0.0000 H       1  UNL1        0.0660
@<TRIPOS>BOND
     1     1    21    1
     2     1    22    1
     3     2    24    1
     4     2    69    1
     5     3    33    1
     6     3    35    1
     7    33     4    1
     8     4    41    1
     9     5    42    1
    10     5    43    1
    11    42     6    1
    12     6    44    1
    13     7    38    1
    14     7    49    1
    15     8    39    1
    16     8    50    1
    17    31     9    1
    18     9    81    1
    19    32    10    1
    20    10    82    1
    21    34    11    1
    22    11    83    1
    23    36    12    1
    24    12    84    1
    25    37    13    1
    26    13    85    1
    27    40    14    1
    28    14    86    1
    29    15    45    1
    30    15    51    1
    31    16    46    1
    32    16    52    1
    33    17    47    1
    34    17    87    1
    35    18    48    1
    36    18    94    1
    37    19    20    1
    38    19    21    1
    39    19    24    1
    40    19    53    1
    41    20    22    1
    42    20    23    1
    43    20    54    1
    44    21    25    1
    45    21    55    1
    46    22    56    1
    47    22    57    1
    48    23    26    1
    49    23    58    1
    50    23    59    1
    51    24    60    1
    52    24    61    1
    53    25    27   ar
    54    25    28   ar
    55    26    29   ar
    56    26    30   ar
    57    27    39   ar
    58    27    62    1
    59    28    38   ar
    60    28    63    1
    61    29    46   ar
    62    29    66    1
    63    30    45   ar
    64    30    67    1
    65    31    32    1
    66    31    33    1
    67    31    64    1
    68    32    34    1
    69    32    65    1
    70    33    68    1
    71    34    35    1
    72    34    70    1
    73    35    47    1
    74    35    71    1
    75    36    37    1
    76    36    40    1
    77    36    72    1
    78    37    42    1
    79    37    73    1
    80    38    41   ar
    81    39    41   ar
    82    40    43    1
    83    40    74    1
    84    42    75    1
    85    43    48    1
    86    43    76    1
    87    44    45   ar
    88    44    46   ar
    89    47    77    1
    90    47    78    1
    91    48    79    1
    92    48    80    1
    93    49    88    1
    94    49    89    1
    95    49    90    1
    96    50    91    1
    97    50    92    1
    98    50    93    1
    99    51    95    1
   100    51    96    1
   101    51    97    1
   102    52    98    1
   103    52    99    1
   104    52   100    1
