@<TRIPOS>MOLECULE
IMPHY004735
 50 53 0 0 0
SMALL
GASTEIGER

@<TRIPOS>ATOM
      1 O           3.4030   -0.8623    0.0000 O.3     1  UNL1       -0.3609
      2 O           6.0010   -0.3623    0.0000 O.3     1  UNL1       -0.3862
      3 O           6.0010   -2.3623    0.0000 O.3     1  UNL1       -0.3865
      4 O           4.2690   -3.3623    0.0000 O.3     1  UNL1       -0.3865
      5 O           2.5369   -3.3623    0.0000 O.3     1  UNL1       -0.3924
      6 O           6.0290    0.6030    0.0000 O.2     1  UNL1       -0.4541
      7 O           2.5369    0.6377    0.0000 O.3     1  UNL1       -0.5063
      8 O           6.0174    3.6723    0.0000 O.2     1  UNL1       -0.2870
      9 O          10.3914   -0.8964    0.0000 O.3     1  UNL1       -0.5068
     10 C           5.1350   -0.8623    0.0000 C.3     1  UNL1        0.1139
     11 C           5.1350   -1.8623    0.0000 C.3     1  UNL1        0.1121
     12 C           4.2690   -0.3623    0.0000 C.3     1  UNL1        0.1193
     13 C           4.2690   -2.3623    0.0000 C.3     1  UNL1        0.1117
     14 C           3.4030   -1.8623    0.0000 C.3     1  UNL1        0.1108
     15 C           4.2690    0.6377    0.0000 C.ar    1  UNL1        0.0680
     16 C           2.5369   -2.3623    0.0000 C.3     1  UNL1        0.0729
     17 C           5.1350    1.1377    0.0000 C.ar    1  UNL1        0.1484
     18 C           3.4030    1.1377    0.0000 C.ar    1  UNL1        0.1261
     19 C           5.1350    2.1377    0.0000 C.ar    1  UNL1        0.0646
     20 C           3.4030    2.1377    0.0000 C.ar    1  UNL1       -0.0189
     21 C           4.2690    2.6377    0.0000 C.ar    1  UNL1       -0.0439
     22 C           6.0290    2.6724    0.0000 C.ar    1  UNL1        0.1931
     23 C           6.9350    1.1169    0.0000 C.ar    1  UNL1        0.1392
     24 C           6.9350    2.1585    0.0000 C.ar    1  UNL1        0.0287
     25 C           7.7991    0.6136    0.0000 C.ar    1  UNL1        0.0176
     26 C           7.7953   -0.3864    0.0000 C.ar    1  UNL1       -0.0476
     27 C           8.6671    1.1102    0.0000 C.ar    1  UNL1       -0.0476
     28 C           8.6594   -0.8898    0.0000 C.ar    1  UNL1       -0.0195
     29 C           9.5312    0.6069    0.0000 C.ar    1  UNL1       -0.0195
     30 C           9.5273   -0.3931    0.0000 C.ar    1  UNL1        0.1169
     31 H           5.1350   -0.2423    0.0000 H       1  UNL1        0.0649
     32 H           5.6720   -1.5523    0.0000 H       1  UNL1        0.0647
     33 H           3.5329    0.0627    0.0000 H       1  UNL1        0.0676
     34 H           3.7320   -2.6723    0.0000 H       1  UNL1        0.0647
     35 H           2.8660   -1.5523    0.0000 H       1  UNL1        0.0646
     36 H           2.3249   -1.7797    0.0000 H       1  UNL1        0.0584
     37 H           1.9264   -2.4700    0.0000 H       1  UNL1        0.0584
     38 H           6.5380   -0.6723    0.0000 H       1  UNL1        0.2100
     39 H           6.0010   -2.9823    0.0000 H       1  UNL1        0.2100
     40 H           4.8059   -3.6723    0.0000 H       1  UNL1        0.2100
     41 H           2.8660    2.4477    0.0000 H       1  UNL1        0.0654
     42 H           4.2690    3.2577    0.0000 H       1  UNL1        0.0627
     43 H           2.0000   -3.6723    0.0000 H       1  UNL1        0.2095
     44 H           7.4708    2.4706    0.0000 H       1  UNL1        0.0693
     45 H           2.0000    0.9477    0.0000 H       1  UNL1        0.2921
     46 H           7.2571   -0.6944    0.0000 H       1  UNL1        0.0626
     47 H           8.6694    1.7302    0.0000 H       1  UNL1        0.0626
     48 H           8.6570   -1.5098    0.0000 H       1  UNL1        0.0654
     49 H          10.0693    0.9148    0.0000 H       1  UNL1        0.0654
     50 H          10.9295   -0.5885    0.0000 H       1  UNL1        0.2921
@<TRIPOS>BOND
     1     1    12    1
     2     1    14    1
     3     2    10    1
     4     2    38    1
     5    11     3    1
     6     3    39    1
     7    13     4    1
     8     4    40    1
     9     5    16    1
    10     5    43    1
    11     6    17   ar
    12     6    23   ar
    13     7    18    1
    14     7    45    1
    15     8    22    2
    16     9    30    1
    17     9    50    1
    18    10    11    1
    19    10    12    1
    20    10    31    1
    21    11    13    1
    22    11    32    1
    23    12    15    1
    24    12    33    1
    25    13    14    1
    26    13    34    1
    27    14    16    1
    28    14    35    1
    29    15    17   ar
    30    15    18   ar
    31    16    36    1
    32    16    37    1
    33    17    19   ar
    34    18    20   ar
    35    19    21   ar
    36    19    22   ar
    37    20    21   ar
    38    20    41    1
    39    21    42    1
    40    22    24   ar
    41    23    24   ar
    42    23    25    1
    43    24    44    1
    44    25    26   ar
    45    25    27   ar
    46    26    28   ar
    47    26    46    1
    48    27    29   ar
    49    27    47    1
    50    28    30   ar
    51    28    48    1
    52    29    30   ar
    53    29    49    1
