@<TRIPOS>MOLECULE
IMPHY017561
 33 33 0 0 0
SMALL
GASTEIGER

@<TRIPOS>ATOM
      1 O           8.0622   -1.0000    0.0000 O.3     1  UNL1       -0.4613
      2 O           9.7942   -1.0000    0.0000 O.2     1  UNL1       -0.2508
      3 C           7.1962   -0.5000    0.0000 C.3     1  UNL1        0.1031
      4 C           6.3301   -1.0000    0.0000 C.3     1  UNL1       -0.0157
      5 C           7.1962    0.5000    0.0000 C.3     1  UNL1       -0.0152
      6 C           5.4641   -0.5000    0.0000 C.3     1  UNL1       -0.0497
      7 C           8.0622    1.0000    0.0000 C.3     1  UNL1       -0.0396
      8 C           4.5981   -1.0000    0.0000 C.3     1  UNL1       -0.0530
      9 C           8.9282    0.5000    0.0000 C.3     1  UNL1        0.0451
     10 C           3.7320   -0.5000    0.0000 C.3     1  UNL1       -0.0533
     11 C           8.9282   -0.5000    0.0000 C.2     1  UNL1        0.3073
     12 C           2.8660   -1.0000    0.0000 C.3     1  UNL1       -0.0559
     13 C           2.0000   -0.5000    0.0000 C.3     1  UNL1       -0.0653
     14 H           7.1962   -1.1200    0.0000 H       1  UNL1        0.0734
     15 H           5.9316   -1.4750    0.0000 H       1  UNL1        0.0301
     16 H           6.7287   -1.4750    0.0000 H       1  UNL1        0.0301
     17 H           6.9841    1.0826    0.0000 H       1  UNL1        0.0301
     18 H           6.5856    0.3923    0.0000 H       1  UNL1        0.0301
     19 H           5.8626   -0.0251    0.0000 H       1  UNL1        0.0266
     20 H           5.0656   -0.0251    0.0000 H       1  UNL1        0.0266
     21 H           8.4607    1.4750    0.0000 H       1  UNL1        0.0272
     22 H           7.6636    1.4750    0.0000 H       1  UNL1        0.0272
     23 H           4.1996   -1.4750    0.0000 H       1  UNL1        0.0265
     24 H           4.9966   -1.4750    0.0000 H       1  UNL1        0.0265
     25 H           9.5388    0.3923    0.0000 H       1  UNL1        0.0377
     26 H           9.1403    1.0826    0.0000 H       1  UNL1        0.0377
     27 H           4.1306   -0.0251    0.0000 H       1  UNL1        0.0265
     28 H           3.3335   -0.0251    0.0000 H       1  UNL1        0.0265
     29 H           2.4675   -1.4750    0.0000 H       1  UNL1        0.0263
     30 H           3.2646   -1.4750    0.0000 H       1  UNL1        0.0263
     31 H           2.3100    0.0369    0.0000 H       1  UNL1        0.0230
     32 H           1.4631   -0.1900    0.0000 H       1  UNL1        0.0230
     33 H           1.6900   -1.0369    0.0000 H       1  UNL1        0.0230
@<TRIPOS>BOND
     1     1     3    1
     2     1    11    1
     3     2    11    2
     4     3     4    1
     5     3     5    1
     6     3    14    1
     7     4     6    1
     8     4    15    1
     9     4    16    1
    10     5     7    1
    11     5    17    1
    12     5    18    1
    13     6     8    1
    14     6    19    1
    15     6    20    1
    16     7     9    1
    17     7    21    1
    18     7    22    1
    19     8    10    1
    20     8    23    1
    21     8    24    1
    22     9    11    1
    23     9    25    1
    24     9    26    1
    25    10    12    1
    26    10    27    1
    27    10    28    1
    28    12    13    1
    29    12    29    1
    30    12    30    1
    31    13    31    1
    32    13    32    1
    33    13    33    1
