@<TRIPOS>MOLECULE
IMPHY004853
 22 23 0 0 0
SMALL
GASTEIGER

@<TRIPOS>ATOM
      1 S           6.2619   -0.4113    0.0000 S.3     1  UNL1       -0.1106
      2 O           5.9674    1.5501    0.0000 O.2     1  UNL1       -0.2956
      3 N           4.6783   -1.2161    0.0000 N.ar    1  UNL1       -0.3489
      4 C           3.7320    0.0887    0.0000 C.ar    1  UNL1        0.0110
      5 C           3.7320   -0.9113    0.0000 C.ar    1  UNL1        0.0480
      6 C           4.6783    0.3934    0.0000 C.ar    1  UNL1        0.0531
      7 C           5.2619   -0.4113    0.0000 C.ar    1  UNL1        0.0845
      8 C           2.8660    0.5887    0.0000 C.ar    1  UNL1       -0.0519
      9 C           2.8660   -1.4113    0.0000 C.ar    1  UNL1       -0.0378
     10 C           2.0000    0.0887    0.0000 C.ar    1  UNL1       -0.0611
     11 C           2.0000   -0.9113    0.0000 C.ar    1  UNL1       -0.0598
     12 C           4.9889    1.3439    0.0000 C.2     1  UNL1        0.1533
     13 C           6.7619   -1.2774    0.0000 C.3     1  UNL1       -0.0121
     14 H           4.8709   -1.8054    0.0000 H       1  UNL1        0.1664
     15 H           2.8660    1.2087    0.0000 H       1  UNL1        0.0624
     16 H           2.8660   -2.0313    0.0000 H       1  UNL1        0.0638
     17 H           1.4631    0.3987    0.0000 H       1  UNL1        0.0618
     18 H           1.4631   -1.2213    0.0000 H       1  UNL1        0.0618
     19 H           4.5749    1.8054    0.0000 H       1  UNL1        0.1082
     20 H           6.2249   -1.5874    0.0000 H       1  UNL1        0.0344
     21 H           7.0719   -1.8143    0.0000 H       1  UNL1        0.0344
     22 H           7.2988   -0.9674    0.0000 H       1  UNL1        0.0344
@<TRIPOS>BOND
     1     1     7    1
     2     1    13    1
     3     2    12    2
     4     3     5   ar
     5     3     7   ar
     6     3    14    1
     7     4     5   ar
     8     4     6   ar
     9     4     8   ar
    10     5     9   ar
    11     6     7   ar
    12     6    12    1
    13     8    10   ar
    14     8    15    1
    15     9    11   ar
    16     9    16    1
    17    10    11   ar
    18    10    17    1
    19    11    18    1
    20    12    19    1
    21    13    20    1
    22    13    21    1
    23    13    22    1
