@<TRIPOS>MOLECULE
IMPHY010342
 48 47 0 0 0
SMALL
GASTEIGER

@<TRIPOS>ATOM
      1 O          15.8564   -0.8100    0.0000 O.3     1  UNL1       -0.4773
      2 O           2.0000    1.1900    0.0000 O.3     1  UNL1       -0.4773
      3 O          14.9904    0.6900    0.0000 O.2     1  UNL1       -0.2455
      4 O           3.7320    1.1900    0.0000 O.2     1  UNL1       -0.2455
      5 C          10.6603   -0.8100    0.0000 C.2     1  UNL1       -0.0504
      6 C           6.3301   -0.3100    0.0000 C.2     1  UNL1       -0.0504
      7 C           9.7942   -0.3100    0.0000 C.2     1  UNL1       -0.0588
      8 C           7.1962   -0.8100    0.0000 C.2     1  UNL1       -0.0588
      9 C          11.5263   -0.3100    0.0000 C.2     1  UNL1       -0.0588
     10 C           5.4641   -0.8100    0.0000 C.2     1  UNL1       -0.0588
     11 C           8.9282   -0.8100    0.0000 C.2     1  UNL1       -0.0615
     12 C           8.0622   -0.3100    0.0000 C.2     1  UNL1       -0.0615
     13 C          10.6603   -1.8100    0.0000 C.3     1  UNL1       -0.0397
     14 C           6.3301    0.6900    0.0000 C.3     1  UNL1       -0.0397
     15 C          12.3923   -0.8100    0.0000 C.2     1  UNL1       -0.0610
     16 C           4.5981   -0.3100    0.0000 C.2     1  UNL1       -0.0610
     17 C          13.2583   -0.3100    0.0000 C.2     1  UNL1       -0.0521
     18 C           3.7320   -0.8100    0.0000 C.2     1  UNL1       -0.0521
     19 C          14.1244   -0.8100    0.0000 C.2     1  UNL1        0.0333
     20 C           2.8660   -0.3100    0.0000 C.2     1  UNL1        0.0333
     21 C          14.1244   -1.8100    0.0000 C.3     1  UNL1       -0.0329
     22 C           2.0000   -0.8100    0.0000 C.3     1  UNL1       -0.0329
     23 C          14.9904   -0.3100    0.0000 C.2     1  UNL1        0.3325
     24 C           2.8660    0.6900    0.0000 C.2     1  UNL1        0.3325
     25 H           9.7942    0.3100    0.0000 H       1  UNL1        0.0620
     26 H           7.1962   -1.4300    0.0000 H       1  UNL1        0.0620
     27 H          11.5263    0.3100    0.0000 H       1  UNL1        0.0620
     28 H           5.4641   -1.4300    0.0000 H       1  UNL1        0.0620
     29 H           8.9282   -1.4300    0.0000 H       1  UNL1        0.0618
     30 H           8.0622    0.3100    0.0000 H       1  UNL1        0.0618
     31 H          10.0403   -1.8100    0.0000 H       1  UNL1        0.0278
     32 H          10.6603   -2.4300    0.0000 H       1  UNL1        0.0278
     33 H          11.2803   -1.8100    0.0000 H       1  UNL1        0.0278
     34 H           6.9501    0.6900    0.0000 H       1  UNL1        0.0278
     35 H           6.3301    1.3100    0.0000 H       1  UNL1        0.0278
     36 H           5.7101    0.6900    0.0000 H       1  UNL1        0.0278
     37 H          12.3923   -1.4300    0.0000 H       1  UNL1        0.0618
     38 H           4.5981    0.3100    0.0000 H       1  UNL1        0.0618
     39 H          13.2583    0.3100    0.0000 H       1  UNL1        0.0622
     40 H           3.7320   -1.4300    0.0000 H       1  UNL1        0.0622
     41 H          13.5044   -1.8100    0.0000 H       1  UNL1        0.0280
     42 H          14.1244   -2.4300    0.0000 H       1  UNL1        0.0280
     43 H          14.7444   -1.8100    0.0000 H       1  UNL1        0.0280
     44 H           1.6900   -0.2731    0.0000 H       1  UNL1        0.0280
     45 H           1.4631   -1.1200    0.0000 H       1  UNL1        0.0280
     46 H           2.3100   -1.3469    0.0000 H       1  UNL1        0.0280
     47 H          16.3933   -0.5000    0.0000 H       1  UNL1        0.2954
     48 H           2.0000    1.8100    0.0000 H       1  UNL1        0.2954
@<TRIPOS>BOND
     1     1    23    1
     2     1    47    1
     3     2    24    1
     4     2    48    1
     5     3    23    2
     6     4    24    2
     7     5     7    2
     8     5     9    1
     9     5    13    1
    10     6     8    2
    11     6    10    1
    12     6    14    1
    13     7    11    1
    14     7    25    1
    15     8    12    1
    16     8    26    1
    17     9    15    2
    18     9    27    1
    19    10    16    2
    20    10    28    1
    21    11    12    2
    22    11    29    1
    23    12    30    1
    24    13    31    1
    25    13    32    1
    26    13    33    1
    27    14    34    1
    28    14    35    1
    29    14    36    1
    30    15    17    1
    31    15    37    1
    32    16    18    1
    33    16    38    1
    34    17    19    2
    35    17    39    1
    36    18    20    2
    37    18    40    1
    38    19    21    1
    39    19    23    1
    40    20    22    1
    41    20    24    1
    42    21    41    1
    43    21    42    1
    44    21    43    1
    45    22    44    1
    46    22    45    1
    47    22    46    1
