@<TRIPOS>MOLECULE
IMPHY013284
 32 33 0 0 0
SMALL
GASTEIGER

@<TRIPOS>ATOM
      1 O           4.6783   -1.0246    0.0000 O.3     1  UNL1       -0.4553
      2 O           3.9057    1.2650    0.0000 O.3     1  UNL1       -0.3835
      3 O           6.2619   -0.2198    0.0000 O.2     1  UNL1       -0.2507
      4 C           3.7320    0.2802    0.0000 C.3     1  UNL1        0.1203
      5 C           2.8660    0.7802    0.0000 C.3     1  UNL1       -0.0018
      6 C           3.7320   -0.7198    0.0000 C.3     1  UNL1        0.1401
      7 C           2.0000    0.2802    0.0000 C.3     1  UNL1       -0.0450
      8 C           2.8660   -1.2199    0.0000 C.3     1  UNL1       -0.0103
      9 C           4.6783    0.5849    0.0000 C.3     1  UNL1        0.0780
     10 C           2.0000   -0.7198    0.0000 C.3     1  UNL1       -0.0488
     11 C           2.3660    1.6462    0.0000 C.3     1  UNL1       -0.0570
     12 C           3.2080    1.7198    0.0000 C.3     1  UNL1       -0.0570
     13 C           3.7320   -1.7198    0.0000 C.3     1  UNL1       -0.0220
     14 C           5.2619   -0.2198    0.0000 C.2     1  UNL1        0.3106
     15 H           1.7880    0.8628    0.0000 H       1  UNL1        0.0271
     16 H           1.3894    0.1725    0.0000 H       1  UNL1        0.0271
     17 H           2.4675   -1.6948    0.0000 H       1  UNL1        0.0304
     18 H           3.2646   -1.6948    0.0000 H       1  UNL1        0.0304
     19 H           5.2156    0.8941    0.0000 H       1  UNL1        0.0407
     20 H           4.4272    1.1518    0.0000 H       1  UNL1        0.0407
     21 H           1.3894   -0.6122    0.0000 H       1  UNL1        0.0267
     22 H           1.7880   -1.3025    0.0000 H       1  UNL1        0.0267
     23 H           2.9030    1.9562    0.0000 H       1  UNL1        0.0236
     24 H           2.0560    2.1831    0.0000 H       1  UNL1        0.0236
     25 H           1.8291    1.3362    0.0000 H       1  UNL1        0.0236
     26 H           3.7906    1.5078    0.0000 H       1  UNL1        0.0236
     27 H           3.4201    2.3025    0.0000 H       1  UNL1        0.0236
     28 H           2.6254    1.9319    0.0000 H       1  UNL1        0.0236
     29 H           3.1120   -1.7198    0.0000 H       1  UNL1        0.0269
     30 H           3.7320   -2.3399    0.0000 H       1  UNL1        0.0269
     31 H           4.3520   -1.7198    0.0000 H       1  UNL1        0.0269
     32 H           4.4883    1.4770    0.0000 H       1  UNL1        0.2104
@<TRIPOS>BOND
     1     1     6    1
     2     1    14    1
     3     4     2    1
     4     2    32    1
     5     3    14    2
     6     4     5    1
     7     4     6    1
     8     4     9    1
     9     5     7    1
    10     5    11    1
    11     5    12    1
    12     6     8    1
    13     6    13    1
    14     7    10    1
    15     7    15    1
    16     7    16    1
    17     8    10    1
    18     8    17    1
    19     8    18    1
    20     9    14    1
    21     9    19    1
    22     9    20    1
    23    10    21    1
    24    10    22    1
    25    11    23    1
    26    11    24    1
    27    11    25    1
    28    12    26    1
    29    12    27    1
    30    12    28    1
    31    13    29    1
    32    13    30    1
    33    13    31    1
