@<TRIPOS>MOLECULE
IMPHY004094
 38 40 0 0 0
SMALL
GASTEIGER

@<TRIPOS>ATOM
      1 O           6.6498    3.0916    0.0000 O.3     1  UNL1       -0.5047
      2 O           8.3780   -0.1639    0.0000 O.2     1  UNL1       -0.2957
      3 N           4.5274    2.4926    0.0000 N.ar    1  UNL1       -0.3513
      4 C           5.0274    0.9537    0.0000 C.ar    1  UNL1        0.0151
      5 C           5.7123    0.1690    0.0000 C.ar    1  UNL1       -0.0235
      6 C           5.3364    1.9048    0.0000 C.ar    1  UNL1        0.0898
      7 C           4.0274    0.9537    0.0000 C.ar    1  UNL1        0.0078
      8 C           3.7183    1.9048    0.0000 C.ar    1  UNL1        0.0476
      9 C           5.3923   -0.7784    0.0000 C.3     1  UNL1       -0.0079
     10 C           6.7328    0.3777    0.0000 C.ar    1  UNL1        0.0218
     11 C           6.3518    2.1370    0.0000 C.ar    1  UNL1        0.1413
     12 C           7.0547    1.3684    0.0000 C.ar    1  UNL1       -0.0076
     13 C           3.3424    0.1690    0.0000 C.ar    1  UNL1       -0.0520
     14 C           2.7029    2.1370    0.0000 C.ar    1  UNL1       -0.0378
     15 C           6.0528   -1.5293    0.0000 C.2     1  UNL1       -0.0809
     16 C           2.3219    0.3777    0.0000 C.ar    1  UNL1       -0.0611
     17 C           2.0000    1.3684    0.0000 C.ar    1  UNL1       -0.0598
     18 C           7.3991   -0.3680    0.0000 C.2     1  UNL1        0.1506
     19 C           5.7328   -2.4767    0.0000 C.2     1  UNL1       -0.0793
     20 C           6.3933   -3.2275    0.0000 C.3     1  UNL1       -0.0440
     21 C           4.7524   -2.6733    0.0000 C.3     1  UNL1       -0.0440
     22 H           4.5274    3.1126    0.0000 H       1  UNL1        0.1660
     23 H           4.8483   -0.4810    0.0000 H       1  UNL1        0.0356
     24 H           5.0050   -1.2626    0.0000 H       1  UNL1        0.0356
     25 H           7.6607    1.4996    0.0000 H       1  UNL1        0.0662
     26 H           3.5408   -0.4184    0.0000 H       1  UNL1        0.0624
     27 H           2.5182    2.7289    0.0000 H       1  UNL1        0.0638
     28 H           6.6607   -1.4074    0.0000 H       1  UNL1        0.0575
     29 H           1.9088   -0.0846    0.0000 H       1  UNL1        0.0618
     30 H           1.3940    1.4996    0.0000 H       1  UNL1        0.0618
     31 H           7.2052   -0.9569    0.0000 H       1  UNL1        0.1081
     32 H           7.2547    3.2275    0.0000 H       1  UNL1        0.2922
     33 H           5.9278   -3.6370    0.0000 H       1  UNL1        0.0274
     34 H           6.8028   -3.6930    0.0000 H       1  UNL1        0.0274
     35 H           6.8588   -2.8180    0.0000 H       1  UNL1        0.0274
     36 H           4.6305   -2.0654    0.0000 H       1  UNL1        0.0274
     37 H           4.1444   -2.7952    0.0000 H       1  UNL1        0.0274
     38 H           4.8742   -3.2812    0.0000 H       1  UNL1        0.0274
@<TRIPOS>BOND
     1     1    11    1
     2     1    32    1
     3     2    18    2
     4     3     6   ar
     5     3     8   ar
     6     3    22    1
     7     4     5   ar
     8     4     6   ar
     9     4     7   ar
    10     5     9    1
    11     5    10   ar
    12     6    11   ar
    13     7     8   ar
    14     7    13   ar
    15     8    14   ar
    16     9    15    1
    17     9    23    1
    18     9    24    1
    19    10    12   ar
    20    10    18    1
    21    11    12   ar
    22    12    25    1
    23    13    16   ar
    24    13    26    1
    25    14    17   ar
    26    14    27    1
    27    15    19    2
    28    15    28    1
    29    16    17   ar
    30    16    29    1
    31    17    30    1
    32    18    31    1
    33    19    20    1
    34    19    21    1
    35    20    33    1
    36    20    34    1
    37    20    35    1
    38    21    36    1
    39    21    37    1
    40    21    38    1
