@<TRIPOS>MOLECULE
IMPHY001053
 48 51 0 0 0
SMALL
GASTEIGER

@<TRIPOS>ATOM
      1 O           2.8718    0.5814    0.0000 O.2     1  UNL1       -0.4937
      2 O           2.8560   -1.4668    0.0000 O.2     1  UNL1       -0.4888
      3 O           4.6298   -2.4910    0.0000 O.2     1  UNL1       -0.2887
      4 O           7.2564   -0.9563    0.0000 O.3     1  UNL1       -0.5031
      5 O           9.0381    0.0541    0.0000 O.3     1  UNL1       -0.4914
      6 N           4.7348    2.0732    0.0000 N.3     1  UNL1       -0.3035
      7 C           5.5080    0.0783    0.0000 C.3     1  UNL1        0.0331
      8 C           4.6419    0.5783    0.0000 C.3     1  UNL1        0.0913
      9 C           6.7562    0.9061    0.0000 C.3     1  UNL1       -0.0281
     10 C           4.6419    1.5783    0.0000 C.3     1  UNL1       -0.0226
     11 C           5.5240   -0.9633    0.0000 C.3     1  UNL1        0.0256
     12 C           6.3740    0.5783    0.0000 C.ar    1  UNL1        0.0097
     13 C           6.2149    2.3027    0.0000 C.3     1  UNL1       -0.0023
     14 C           3.7319    0.0714    0.0000 C.2     1  UNL1        0.1629
     15 C           5.5080    2.0783    0.0000 C.3     1  UNL1       -0.0252
     16 C           6.3740    1.5783    0.0000 C.ar    1  UNL1       -0.0398
     17 C           4.6260   -1.4910    0.0000 C.2     1  UNL1        0.2016
     18 C           3.7239   -0.9702    0.0000 C.2     1  UNL1        0.2019
     19 C           7.2679    0.0436    0.0000 C.ar    1  UNL1        0.1626
     20 C           7.2679    2.1129    0.0000 C.ar    1  UNL1       -0.0546
     21 C           8.1740    0.5574    0.0000 C.ar    1  UNL1        0.1616
     22 C           8.1740    1.5991    0.0000 C.ar    1  UNL1       -0.0160
     23 C           2.0000    0.0914    0.0000 C.3     1  UNL1        0.0786
     24 C           2.8521   -2.4668    0.0000 C.3     1  UNL1        0.0791
     25 C           9.9060    0.5508    0.0000 C.3     1  UNL1        0.0790
     26 H           7.0608    0.3661    0.0000 H       1  UNL1        0.0287
     27 H           7.3167    1.1712    0.0000 H       1  UNL1        0.0287
     28 H           4.4299    2.1609    0.0000 H       1  UNL1        0.0291
     29 H           4.0314    1.4706    0.0000 H       1  UNL1        0.0291
     30 H           5.7420   -1.5436    0.0000 H       1  UNL1        0.0356
     31 H           6.1332   -0.8478    0.0000 H       1  UNL1        0.0356
     32 H           4.2767    2.4910    0.0000 H       1  UNL1        0.1229
     33 H           6.8076    2.4846    0.0000 H       1  UNL1        0.0425
     34 H           6.0761    2.9070    0.0000 H       1  UNL1        0.0425
     35 H           5.9065    2.5532    0.0000 H       1  UNL1        0.0314
     36 H           5.1094    2.5532    0.0000 H       1  UNL1        0.0314
     37 H           7.2608    2.7329    0.0000 H       1  UNL1        0.0622
     38 H           8.7097    1.9111    0.0000 H       1  UNL1        0.0655
     39 H           7.7897   -1.2725    0.0000 H       1  UNL1        0.2923
     40 H           1.6962    0.6319    0.0000 H       1  UNL1        0.0660
     41 H           1.4595   -0.2123    0.0000 H       1  UNL1        0.0660
     42 H           2.3038   -0.4490    0.0000 H       1  UNL1        0.0660
     43 H           2.2321   -2.4644    0.0000 H       1  UNL1        0.0660
     44 H           2.8497   -3.0868    0.0000 H       1  UNL1        0.0660
     45 H           3.4721   -2.4692    0.0000 H       1  UNL1        0.0660
     46 H          10.2140    0.0126    0.0000 H       1  UNL1        0.0660
     47 H          10.4442    0.8587    0.0000 H       1  UNL1        0.0660
     48 H           9.5981    1.0889    0.0000 H       1  UNL1        0.0660
@<TRIPOS>BOND
     1     1    14    1
     2     1    23    1
     3     2    18    1
     4     2    24    1
     5     3    17    2
     6     4    19    1
     7     4    39    1
     8     5    21    1
     9     5    25    1
    10     8     6    1
    11     6    13    1
    12     6    32    1
    13     7     8    1
    14     7     9    1
    15     7    11    1
    16     7    12    1
    17     8    10    1
    18     8    14    1
    19     9    13    1
    20     9    26    1
    21     9    27    1
    22    10    15    1
    23    10    28    1
    24    10    29    1
    25    11    17    1
    26    11    30    1
    27    11    31    1
    28    12    16   ar
    29    12    19   ar
    30    13    33    1
    31    13    34    1
    32    14    18    2
    33    15    16    1
    34    15    35    1
    35    15    36    1
    36    16    20   ar
    37    17    18    1
    38    19    21   ar
    39    20    22   ar
    40    20    37    1
    41    21    22   ar
    42    22    38    1
    43    23    40    1
    44    23    41    1
    45    23    42    1
    46    24    43    1
    47    24    44    1
    48    24    45    1
    49    25    46    1
    50    25    47    1
    51    25    48    1
