@<TRIPOS>MOLECULE
IMPHY013620
 76 79 0 0 0
SMALL
GASTEIGER

@<TRIPOS>ATOM
      1 O           6.4059    4.3615    0.0000 O.3     1  UNL1       -0.3878
      2 O           9.1302    2.3510    0.0000 O.3     1  UNL1       -0.4642
      3 O           6.0308    1.9969    0.0000 O.3     1  UNL1       -0.4609
      4 O           6.8671   -2.5756    0.0000 O.3     1  UNL1       -0.3061
      5 O           5.1350   -2.5756    0.0000 O.3     1  UNL1       -0.3404
      6 O           5.9670   -1.0513    0.0000 O.2     1  UNL1       -0.4666
      7 O           7.7190    1.0678    0.0000 O.2     1  UNL1       -0.2508
      8 O           7.7628    1.9903    0.0000 O.2     1  UNL1       -0.2452
      9 O           6.8671   -4.5756    0.0000 O.3     1  UNL1       -0.3841
     10 O           5.1350   -5.5756    0.0000 O.3     1  UNL1       -0.3864
     11 O           3.4030   -4.5756    0.0000 O.3     1  UNL1       -0.3865
     12 O           2.5369   -3.0756    0.0000 O.3     1  UNL1       -0.3924
     13 C           7.4059    4.3577    0.0000 C.3     1  UNL1        0.0779
     14 C           8.4059    4.3538    0.0000 C.3     1  UNL1        0.0250
     15 C           8.7143    5.2989    0.0000 C.3     1  UNL1       -0.0352
     16 C           7.1048    5.3051    0.0000 C.3     1  UNL1       -0.0230
     17 C           7.9118    5.8856    0.0000 C.3     1  UNL1       -0.0474
     18 C           6.9026    3.4936    0.0000 C.3     1  UNL1        0.0197
     19 C           8.9025    3.4859    0.0000 C.3     1  UNL1        0.0981
     20 C           9.6660    5.6059    0.0000 C.3     1  UNL1       -0.0620
     21 C           6.0346    2.9969    0.0000 C.3     1  UNL1        0.0980
     22 C           7.6069    2.7838    0.0000 C.3     1  UNL1       -0.0567
     23 C           8.6269    1.4869    0.0000 C.2     1  UNL1        0.3080
     24 C           7.7551   -0.0097    0.0000 C.3     1  UNL1        0.0307
     25 C           8.6230    0.4869    0.0000 C.3     1  UNL1        0.0559
     26 C           6.8948    1.4936    0.0000 C.2     1  UNL1        0.3387
     27 C           6.8910    0.4936    0.0000 C.2     1  UNL1        0.0785
     28 C           7.7671   -1.0513    0.0000 C.2     1  UNL1        0.0019
     29 C           6.0010   -4.0756    0.0000 C.3     1  UNL1        0.1343
     30 C           6.0010   -3.0756    0.0000 C.3     1  UNL1        0.1921
     31 C           6.8671   -1.5756    0.0000 C.3     1  UNL1        0.2266
     32 C           5.1350   -4.5756    0.0000 C.3     1  UNL1        0.1141
     33 C           4.2690   -4.0756    0.0000 C.3     1  UNL1        0.1119
     34 C           4.2690   -3.0756    0.0000 C.3     1  UNL1        0.1130
     35 C           5.9790   -0.0097    0.0000 C.2     1  UNL1        0.0988
     36 C           8.6370   -1.5446    0.0000 C.2     1  UNL1       -0.0814
     37 C           3.4030   -2.5756    0.0000 C.3     1  UNL1        0.0730
     38 C           8.6447   -2.5446    0.0000 C.3     1  UNL1       -0.0464
     39 H           9.0226    4.4171    0.0000 H       1  UNL1        0.0364
     40 H           8.8128    5.9110    0.0000 H       1  UNL1        0.0303
     41 H           6.7976    5.8436    0.0000 H       1  UNL1        0.0293
     42 H           6.5369    5.0562    0.0000 H       1  UNL1        0.0293
     43 H           8.3283    6.3448    0.0000 H       1  UNL1        0.0269
     44 H           7.4988    6.3480    0.0000 H       1  UNL1        0.0269
     45 H           7.5176    3.5722    0.0000 H       1  UNL1        0.0359
     46 H           9.5078    3.3516    0.0000 H       1  UNL1        0.0701
     47 H           8.3220    3.2681    0.0000 H       1  UNL1        0.0701
     48 H           9.8563    5.0158    0.0000 H       1  UNL1        0.0233
     49 H          10.2560    5.7962    0.0000 H       1  UNL1        0.0233
     50 H           9.4756    6.1959    0.0000 H       1  UNL1        0.0233
     51 H           5.8248    3.5804    0.0000 H       1  UNL1        0.0701
     52 H           5.4236    2.8916    0.0000 H       1  UNL1        0.0701
     53 H           6.0980    4.8997    0.0000 H       1  UNL1        0.2102
     54 H           7.1668    2.3470    0.0000 H       1  UNL1        0.0234
     55 H           8.0436    2.3437    0.0000 H       1  UNL1        0.0234
     56 H           8.0470    3.2205    0.0000 H       1  UNL1        0.0234
     57 H           8.2932   -0.3176    0.0000 H       1  UNL1        0.0404
     58 H           8.8328   -0.0965    0.0000 H       1  UNL1        0.0387
     59 H           9.2340    0.5922    0.0000 H       1  UNL1        0.0387
     60 H           6.0010   -4.6956    0.0000 H       1  UNL1        0.0671
     61 H           6.0010   -2.4556    0.0000 H       1  UNL1        0.0939
     62 H           4.5981   -4.8856    0.0000 H       1  UNL1        0.0648
     63 H           7.4046   -1.8845    0.0000 H       1  UNL1        0.1109
     64 H           4.2690   -4.6956    0.0000 H       1  UNL1        0.0647
     65 H           4.2690   -2.4556    0.0000 H       1  UNL1        0.0647
     66 H           5.4470    0.3085    0.0000 H       1  UNL1        0.1030
     67 H           3.8015   -2.1006    0.0000 H       1  UNL1        0.0584
     68 H           3.0044   -2.1006    0.0000 H       1  UNL1        0.0584
     69 H           9.1715   -1.2305    0.0000 H       1  UNL1        0.0571
     70 H           6.8671   -5.1956    0.0000 H       1  UNL1        0.2101
     71 H           4.5981   -5.8856    0.0000 H       1  UNL1        0.2100
     72 H           3.4030   -5.1956    0.0000 H       1  UNL1        0.2100
     73 H           8.0247   -2.5493    0.0000 H       1  UNL1        0.0272
     74 H           8.6495   -3.1645    0.0000 H       1  UNL1        0.0272
     75 H           9.2647   -2.5398    0.0000 H       1  UNL1        0.0272
     76 H           2.0000   -2.7656    0.0000 H       1  UNL1        0.2095
@<TRIPOS>BOND
     1     1    13    1
     2     1    53    1
     3     2    19    1
     4     2    23    1
     5     3    21    1
     6     3    26    1
     7    30     4    1
     8     4    31    1
     9     5    30    1
    10     5    34    1
    11     6    31    1
    12     6    35    1
    13     7    23    2
    14     8    26    2
    15    29     9    1
    16     9    70    1
    17    32    10    1
    18    10    71    1
    19    33    11    1
    20    11    72    1
    21    12    37    1
    22    12    76    1
    23    13    14    1
    24    13    16    1
    25    13    18    1
    26    14    15    1
    27    14    19    1
    28    14    39    1
    29    15    17    1
    30    15    20    1
    31    15    40    1
    32    16    17    1
    33    16    41    1
    34    16    42    1
    35    17    43    1
    36    17    44    1
    37    18    21    1
    38    18    22    1
    39    18    45    1
    40    19    46    1
    41    19    47    1
    42    20    48    1
    43    20    49    1
    44    20    50    1
    45    21    51    1
    46    21    52    1
    47    22    54    1
    48    22    55    1
    49    22    56    1
    50    23    25    1
    51    24    25    1
    52    24    27    1
    53    24    28    1
    54    24    57    1
    55    25    58    1
    56    25    59    1
    57    26    27    1
    58    27    35    2
    59    28    31    1
    60    28    36    2
    61    29    30    1
    62    29    32    1
    63    29    60    1
    64    30    61    1
    65    31    63    1
    66    32    33    1
    67    32    62    1
    68    33    34    1
    69    33    64    1
    70    34    37    1
    71    34    65    1
    72    35    66    1
    73    36    38    1
    74    36    69    1
    75    37    67    1
    76    37    68    1
    77    38    73    1
    78    38    74    1
    79    38    75    1
