@<TRIPOS>MOLECULE
IMPHY017654
 34 33 0 0 0
SMALL
GASTEIGER

@<TRIPOS>ATOM
      1 O           6.3301    0.0000    0.0000 O.3     1  UNL1       -0.4641
      2 O           5.4641   -1.5000    0.0000 O.2     1  UNL1       -0.2505
      3 C           8.0622   -0.0000    0.0000 C.3     1  UNL1       -0.0003
      4 C           7.1962   -0.5000    0.0000 C.3     1  UNL1        0.0959
      5 C           8.9282   -0.5000    0.0000 C.2     1  UNL1       -0.0847
      6 C           9.7942    1.0000    0.0000 C.3     1  UNL1       -0.0376
      7 C           4.5981    0.0000    0.0000 C.3     1  UNL1        0.0631
      8 C           9.7942   -0.0000    0.0000 C.2     1  UNL1       -0.0881
      9 C           5.4641   -0.5000    0.0000 C.2     1  UNL1        0.3109
     10 C           2.8660    1.0000    0.0000 C.3     1  UNL1       -0.0376
     11 C           3.7320   -0.5000    0.0000 C.2     1  UNL1       -0.0774
     12 C           2.8660   -0.0000    0.0000 C.2     1  UNL1       -0.0877
     13 C          10.6603    1.5000    0.0000 C.3     1  UNL1       -0.0618
     14 C           2.0000    1.5000    0.0000 C.3     1  UNL1       -0.0618
     15 H           8.4607    0.4749    0.0000 H       1  UNL1        0.0340
     16 H           7.6636    0.4749    0.0000 H       1  UNL1        0.0340
     17 H           6.7976   -0.9749    0.0000 H       1  UNL1        0.0700
     18 H           7.5947   -0.9749    0.0000 H       1  UNL1        0.0700
     19 H           8.9282   -1.1200    0.0000 H       1  UNL1        0.0570
     20 H           9.5822    1.5826    0.0000 H       1  UNL1        0.0305
     21 H           9.1836    0.8923    0.0000 H       1  UNL1        0.0305
     22 H           4.9966    0.4749    0.0000 H       1  UNL1        0.0420
     23 H           4.1996    0.4749    0.0000 H       1  UNL1        0.0420
     24 H          10.3312   -0.3100    0.0000 H       1  UNL1        0.0569
     25 H           3.4766    0.8923    0.0000 H       1  UNL1        0.0305
     26 H           3.0781    1.5826    0.0000 H       1  UNL1        0.0305
     27 H           3.7320   -1.1200    0.0000 H       1  UNL1        0.0574
     28 H           2.3291   -0.3100    0.0000 H       1  UNL1        0.0569
     29 H          10.9703    0.9631    0.0000 H       1  UNL1        0.0233
     30 H          11.1972    1.8100    0.0000 H       1  UNL1        0.0233
     31 H          10.3503    2.0369    0.0000 H       1  UNL1        0.0233
     32 H           2.3100    2.0369    0.0000 H       1  UNL1        0.0233
     33 H           1.4631    1.8100    0.0000 H       1  UNL1        0.0233
     34 H           1.6900    0.9631    0.0000 H       1  UNL1        0.0233
@<TRIPOS>BOND
     1     1     4    1
     2     1     9    1
     3     2     9    2
     4     3     4    1
     5     3     5    1
     6     3    15    1
     7     3    16    1
     8     4    17    1
     9     4    18    1
    10     5     8    2
    11     5    19    1
    12     6     8    1
    13     6    13    1
    14     6    20    1
    15     6    21    1
    16     7     9    1
    17     7    11    1
    18     7    22    1
    19     7    23    1
    20     8    24    1
    21    10    12    1
    22    10    14    1
    23    10    25    1
    24    10    26    1
    25    11    12    2
    26    11    27    1
    27    12    28    1
    28    13    29    1
    29    13    30    1
    30    13    31    1
    31    14    32    1
    32    14    33    1
    33    14    34    1
