@<TRIPOS>MOLECULE
IMPHY000177
 52 51 0 0 0
SMALL
GASTEIGER

@<TRIPOS>ATOM
      1 O          13.2583    0.0950    0.0000 O.3     1  UNL1       -0.4619
      2 O          12.3923   -1.4050    0.0000 O.2     1  UNL1       -0.2509
      3 O          14.9904    1.0950    0.0000 O.3     1  UNL1       -0.3861
      4 O          16.7224    0.0950    0.0000 O.3     1  UNL1       -0.3923
      5 C           7.1962   -0.4050    0.0000 C.3     1  UNL1       -0.0531
      6 C           8.0622    0.0950    0.0000 C.3     1  UNL1       -0.0531
      7 C           6.3301    0.0950    0.0000 C.3     1  UNL1       -0.0531
      8 C           8.9282   -0.4050    0.0000 C.3     1  UNL1       -0.0530
      9 C           5.4641   -0.4050    0.0000 C.3     1  UNL1       -0.0531
     10 C           9.7942    0.0950    0.0000 C.3     1  UNL1       -0.0526
     11 C           4.5981    0.0950    0.0000 C.3     1  UNL1       -0.0531
     12 C           3.7320   -0.4050    0.0000 C.3     1  UNL1       -0.0533
     13 C          10.6603   -0.4050    0.0000 C.3     1  UNL1       -0.0430
     14 C           2.8660    0.0950    0.0000 C.3     1  UNL1       -0.0559
     15 C          11.5263    0.0950    0.0000 C.3     1  UNL1        0.0449
     16 C           2.0000   -0.4050    0.0000 C.3     1  UNL1       -0.0653
     17 C          12.3923   -0.4050    0.0000 C.2     1  UNL1        0.3072
     18 C          14.1244   -0.4050    0.0000 C.3     1  UNL1        0.1204
     19 C          14.9904    0.0950    0.0000 C.3     1  UNL1        0.1121
     20 C          15.8564   -0.4050    0.0000 C.3     1  UNL1        0.0733
     21 H           6.7976   -0.8799    0.0000 H       1  UNL1        0.0265
     22 H           7.5947   -0.8799    0.0000 H       1  UNL1        0.0265
     23 H           8.4607    0.5699    0.0000 H       1  UNL1        0.0265
     24 H           7.6636    0.5699    0.0000 H       1  UNL1        0.0265
     25 H           6.7287    0.5699    0.0000 H       1  UNL1        0.0265
     26 H           5.9316    0.5699    0.0000 H       1  UNL1        0.0265
     27 H           8.5297   -0.8799    0.0000 H       1  UNL1        0.0265
     28 H           9.3267   -0.8799    0.0000 H       1  UNL1        0.0265
     29 H           5.0656   -0.8799    0.0000 H       1  UNL1        0.0265
     30 H           5.8626   -0.8799    0.0000 H       1  UNL1        0.0265
     31 H          10.1928    0.5699    0.0000 H       1  UNL1        0.0265
     32 H           9.3957    0.5699    0.0000 H       1  UNL1        0.0265
     33 H           4.9966    0.5699    0.0000 H       1  UNL1        0.0265
     34 H           4.1996    0.5699    0.0000 H       1  UNL1        0.0265
     35 H           3.3335   -0.8799    0.0000 H       1  UNL1        0.0265
     36 H           4.1306   -0.8799    0.0000 H       1  UNL1        0.0265
     37 H          10.2617   -0.8799    0.0000 H       1  UNL1        0.0270
     38 H          11.0588   -0.8799    0.0000 H       1  UNL1        0.0270
     39 H           3.2646    0.5699    0.0000 H       1  UNL1        0.0263
     40 H           2.4675    0.5699    0.0000 H       1  UNL1        0.0263
     41 H          11.9248    0.5699    0.0000 H       1  UNL1        0.0377
     42 H          11.1278    0.5699    0.0000 H       1  UNL1        0.0377
     43 H           1.6900    0.1319    0.0000 H       1  UNL1        0.0230
     44 H           1.4631   -0.7150    0.0000 H       1  UNL1        0.0230
     45 H           2.3100   -0.9419    0.0000 H       1  UNL1        0.0230
     46 H          13.7258   -0.8799    0.0000 H       1  UNL1        0.0724
     47 H          14.5229   -0.8799    0.0000 H       1  UNL1        0.0724
     48 H          15.7265    0.5200    0.0000 H       1  UNL1        0.0650
     49 H          15.4579   -0.8799    0.0000 H       1  UNL1        0.0584
     50 H          16.2549   -0.8799    0.0000 H       1  UNL1        0.0584
     51 H          15.5273    1.4050    0.0000 H       1  UNL1        0.2100
     52 H          17.2594   -0.2150    0.0000 H       1  UNL1        0.2095
@<TRIPOS>BOND
     1     1    17    1
     2     1    18    1
     3     2    17    2
     4     3    19    1
     5     3    51    1
     6     4    20    1
     7     4    52    1
     8     5     6    1
     9     5     7    1
    10     5    21    1
    11     5    22    1
    12     6     8    1
    13     6    23    1
    14     6    24    1
    15     7     9    1
    16     7    25    1
    17     7    26    1
    18     8    10    1
    19     8    27    1
    20     8    28    1
    21     9    11    1
    22     9    29    1
    23     9    30    1
    24    10    13    1
    25    10    31    1
    26    10    32    1
    27    11    12    1
    28    11    33    1
    29    11    34    1
    30    12    14    1
    31    12    35    1
    32    12    36    1
    33    13    15    1
    34    13    37    1
    35    13    38    1
    36    14    16    1
    37    14    39    1
    38    14    40    1
    39    15    17    1
    40    15    41    1
    41    15    42    1
    42    16    43    1
    43    16    44    1
    44    16    45    1
    45    18    19    1
    46    18    46    1
    47    18    47    1
    48    19    20    1
    49    19    48    1
    50    20    49    1
    51    20    50    1
