@<TRIPOS>MOLECULE
IMPHY010437
 53 57 0 0 0
SMALL
GASTEIGER

@<TRIPOS>ATOM
      1 O           8.5117   -0.3495    0.0000 O.3     1  UNL1       -0.3938
      2 O           7.6797    2.5328    0.0000 O.3     1  UNL1       -0.4674
      3 O           8.9277    1.3318    0.0000 O.2     1  UNL1       -0.2501
      4 N           6.5117   -0.4510    0.0000 N.3     1  UNL1       -0.2857
      5 N           4.2558   -0.8851    0.0000 N.ar    1  UNL1       -0.3452
      6 C           7.2636    0.8514    0.0000 C.3     1  UNL1        0.1128
      7 C           6.5117    0.4173    0.0000 C.3     1  UNL1        0.0338
      8 C           6.5117   -2.1875    0.0000 C.3     1  UNL1        0.0024
      9 C           5.7597   -0.8851    0.0000 C.3     1  UNL1        0.0523
     10 C           5.7597   -1.7534    0.0000 C.3     1  UNL1       -0.0241
     11 C           5.7597    0.8514    0.0000 C.3     1  UNL1       -0.0085
     12 C           7.2636   -0.8851    0.0000 C.3     1  UNL1        0.0213
     13 C           7.2636   -1.7534    0.0000 C.2     1  UNL1       -0.0554
     14 C           5.0078   -0.4510    0.0000 C.ar    1  UNL1        0.0400
     15 C           5.0078    0.4173    0.0000 C.ar    1  UNL1       -0.0159
     16 C           8.2344    0.6113    0.0000 C.3     1  UNL1        0.0620
     17 C           7.9570    1.5720    0.0000 C.2     1  UNL1        0.3174
     18 C           3.5039    0.4173    0.0000 C.ar    1  UNL1        0.0034
     19 C           8.1297   -2.2534    0.0000 C.2     1  UNL1       -0.0864
     20 C           3.5039   -0.4510    0.0000 C.ar    1  UNL1        0.0493
     21 C           4.2558   -1.8851    0.0000 C.3     1  UNL1        0.0122
     22 C           2.7520    0.8514    0.0000 C.ar    1  UNL1       -0.0523
     23 C           8.1297   -3.2534    0.0000 C.3     1  UNL1       -0.0465
     24 C           2.7520   -0.8851    0.0000 C.ar    1  UNL1       -0.0376
     25 C           2.0000    0.4173    0.0000 C.ar    1  UNL1       -0.0611
     26 C           2.0000   -0.4510    0.0000 C.ar    1  UNL1       -0.0598
     27 C           8.3730    3.2534    0.0000 C.3     1  UNL1        0.0817
     28 H           6.5117    1.2673    0.0000 H       1  UNL1        0.0478
     29 H           6.5117   -3.0375    0.0000 H       1  UNL1        0.0358
     30 H           5.0902   -1.4087    0.0000 H       1  UNL1        0.0527
     31 H           5.1492   -1.6457    0.0000 H       1  UNL1        0.0290
     32 H           5.5477   -2.3360    0.0000 H       1  UNL1        0.0290
     33 H           6.1583    1.3264    0.0000 H       1  UNL1        0.0329
     34 H           5.3612    1.3264    0.0000 H       1  UNL1        0.0329
     35 H           7.8742   -0.9928    0.0000 H       1  UNL1        0.0473
     36 H           7.4757   -0.3025    0.0000 H       1  UNL1        0.0473
     37 H           8.8508    0.6772    0.0000 H       1  UNL1        0.0569
     38 H           8.2765    1.2298    0.0000 H       1  UNL1        0.0569
     39 H           8.6666   -1.9434    0.0000 H       1  UNL1        0.0569
     40 H           9.1136   -0.4984    0.0000 H       1  UNL1        0.2094
     41 H           3.6358   -1.8851    0.0000 H       1  UNL1        0.0456
     42 H           4.2558   -2.5051    0.0000 H       1  UNL1        0.0456
     43 H           4.8758   -1.8851    0.0000 H       1  UNL1        0.0456
     44 H           2.7520    1.4714    0.0000 H       1  UNL1        0.0624
     45 H           7.5097   -3.2534    0.0000 H       1  UNL1        0.0272
     46 H           8.1297   -3.8734    0.0000 H       1  UNL1        0.0272
     47 H           8.7497   -3.2534    0.0000 H       1  UNL1        0.0272
     48 H           2.7520   -1.5051    0.0000 H       1  UNL1        0.0638
     49 H           1.4631    0.7273    0.0000 H       1  UNL1        0.0618
     50 H           1.4631   -0.7610    0.0000 H       1  UNL1        0.0618
     51 H           8.8198    2.8235    0.0000 H       1  UNL1        0.0661
     52 H           8.8029    3.7001    0.0000 H       1  UNL1        0.0661
     53 H           7.9263    3.6833    0.0000 H       1  UNL1        0.0661
@<TRIPOS>BOND
     1     1    16    1
     2     1    40    1
     3     2    17    1
     4     2    27    1
     5     3    17    2
     6     4     7    1
     7     4     9    1
     8     4    12    1
     9     5    14   ar
    10     5    20   ar
    11     5    21    1
    12     6     7    1
    13     6     8    1
    14     6    16    1
    15     6    17    1
    16     7    11    1
    17     7    28    1
    18     8    10    1
    19     8    13    1
    20     8    29    1
    21     9    10    1
    22     9    14    1
    23     9    30    1
    24    10    31    1
    25    10    32    1
    26    11    15    1
    27    11    33    1
    28    11    34    1
    29    12    13    1
    30    12    35    1
    31    12    36    1
    32    13    19    2
    33    14    15   ar
    34    15    18   ar
    35    16    37    1
    36    16    38    1
    37    18    20   ar
    38    18    22   ar
    39    19    23    1
    40    19    39    1
    41    20    24   ar
    42    21    41    1
    43    21    42    1
    44    21    43    1
    45    22    25   ar
    46    22    44    1
    47    23    45    1
    48    23    46    1
    49    23    47    1
    50    24    26   ar
    51    24    48    1
    52    25    26   ar
    53    25    49    1
    54    26    50    1
    55    27    51    1
    56    27    52    1
    57    27    53    1
