@<TRIPOS>MOLECULE
IMPHY007981
 38 40 0 0 0
SMALL
GASTEIGER

@<TRIPOS>ATOM
      1 O           4.1714    2.2219    0.0000 O.2     1  UNL1       -0.4594
      2 O           7.2622    1.2781    0.0000 O.3     1  UNL1       -0.3871
      3 O           2.0000    1.3022    0.0000 O.2     1  UNL1       -0.2885
      4 C           4.6641   -0.2219    0.0000 C.3     1  UNL1       -0.0080
      5 C           5.5301   -0.7219    0.0000 C.3     1  UNL1       -0.0291
      6 C           6.3961   -0.2219    0.0000 C.3     1  UNL1       -0.0190
      7 C           4.6641    0.7781    0.0000 C.ar    1  UNL1        0.0102
      8 C           3.7702   -0.7566    0.0000 C.3     1  UNL1       -0.0361
      9 C           5.5301   -1.7219    0.0000 C.3     1  UNL1       -0.0432
     10 C           6.3961    0.7781    0.0000 C.3     1  UNL1        0.0837
     11 C           5.5301    1.2781    0.0000 C.ar    1  UNL1        0.0227
     12 C           2.8641   -0.2428    0.0000 C.3     1  UNL1        0.0230
     13 C           3.7702    1.3127    0.0000 C.ar    1  UNL1        0.1739
     14 C           2.8641    0.7989    0.0000 C.2     1  UNL1        0.2010
     15 C           6.3961   -2.2219    0.0000 C.3     1  UNL1       -0.0624
     16 C           4.6641   -2.2219    0.0000 C.3     1  UNL1       -0.0624
     17 C           5.1650    2.2024    0.0000 C.ar    1  UNL1        0.0986
     18 C           2.0000   -0.7461    0.0000 C.3     1  UNL1       -0.0552
     19 H           4.6706   -1.0719    0.0000 H       1  UNL1        0.0353
     20 H           6.0671   -1.0319    0.0000 H       1  UNL1        0.0310
     21 H           6.6082   -0.8046    0.0000 H       1  UNL1        0.0296
     22 H           7.0067   -0.1143    0.0000 H       1  UNL1        0.0296
     23 H           3.3765   -1.2356    0.0000 H       1  UNL1        0.0278
     24 H           4.1748   -1.2264    0.0000 H       1  UNL1        0.0278
     25 H           5.5301   -2.3419    0.0000 H       1  UNL1        0.0298
     26 H           6.9331    0.4681    0.0000 H       1  UNL1        0.0645
     27 H           2.3266    0.0662    0.0000 H       1  UNL1        0.0379
     28 H           6.0862   -2.7589    0.0000 H       1  UNL1        0.0232
     29 H           6.9331   -2.5319    0.0000 H       1  UNL1        0.0232
     30 H           6.7062   -1.6850    0.0000 H       1  UNL1        0.0232
     31 H           4.3541   -1.6850    0.0000 H       1  UNL1        0.0232
     32 H           4.1272   -2.5319    0.0000 H       1  UNL1        0.0232
     33 H           4.9741   -2.7589    0.0000 H       1  UNL1        0.0232
     34 H           5.5187    2.7116    0.0000 H       1  UNL1        0.1033
     35 H           1.6879   -0.2104    0.0000 H       1  UNL1        0.0237
     36 H           1.4643   -1.0582    0.0000 H       1  UNL1        0.0237
     37 H           2.3121   -1.2818    0.0000 H       1  UNL1        0.0237
     38 H           7.7991    0.9681    0.0000 H       1  UNL1        0.2102
@<TRIPOS>BOND
     1     1    13   ar
     2     1    17   ar
     3    10     2    1
     4     2    38    1
     5     3    14    2
     6     4     5    1
     7     4     7    1
     8     4     8    1
     9     4    19    1
    10     5     6    1
    11     5     9    1
    12     5    20    1
    13     6    10    1
    14     6    21    1
    15     6    22    1
    16     7    11   ar
    17     7    13   ar
    18     8    12    1
    19     8    23    1
    20     8    24    1
    21     9    15    1
    22     9    16    1
    23     9    25    1
    24    10    11    1
    25    10    26    1
    26    11    17   ar
    27    12    14    1
    28    12    18    1
    29    12    27    1
    30    13    14    1
    31    15    28    1
    32    15    29    1
    33    15    30    1
    34    16    31    1
    35    16    32    1
    36    16    33    1
    37    17    34    1
    38    18    35    1
    39    18    36    1
    40    18    37    1
