@<TRIPOS>MOLECULE
IMPHY000452
 18 20 0 0 0
SMALL
GASTEIGER

@<TRIPOS>ATOM
      1 C        2552.0100 2420.0000    0.0000 C.3     1  UNL1        0.0042
      2 C        2552.0100 2460.0000    0.0000 C.3     1  UNL1        0.0185
      3 C        2552.0100 2500.0000    0.0000 C.2     1  UNL1       -0.0450
      4 C        2517.3700 2520.0500    0.0000 C.3     1  UNL1        0.0300
      5 C        2482.6300 2500.0000    0.0000 C.3     1  UNL1        0.0728
      6 C        2482.6300 2460.0000    0.0000 C.3     1  UNL1        0.1739
      7 C        2517.3700 2440.0500    0.0000 C.3     1  UNL1        0.0477
      8 O        2413.3500 2460.0000    0.0000 O.3     1  UNL1       -0.4491
      9 C        2413.3500 2500.0000    0.0000 C.2     1  UNL1        0.3372
     10 C        2448.0900 2520.0500    0.0000 C.2     1  UNL1        0.0569
     11 C        2448.0900 2560.0500    0.0000 C.2     1  UNL1        0.0021
     12 O        2378.7100 2520.0500    0.0000 O.2     1  UNL1       -0.2453
     13 C        2586.7500 2520.0500    0.0000 C.2     1  UNL1        0.0121
     14 C        2586.7500 2560.0500    0.0000 C.2     1  UNL1        0.2293
     15 O        2552.1100 2580.0000    0.0000 O.2     1  UNL1       -0.2835
     16 C        2621.2900 2500.0000    0.0000 C.3     1  UNL1        0.0291
     17 C        2621.2900 2460.0000    0.0000 C.3     1  UNL1        0.0051
     18 C        2586.7500 2440.0500    0.0000 C.3     1  UNL1        0.0042
@<TRIPOS>BOND
     1     2     1    1
     2     2     3    1
     3     2     7    1
     4     2    18    1
     5     3     4    1
     6     3    13    2
     7     5     4    1
     8     5    10    1
     9     6     5    1
    10     6     8    1
    11     6     7    1
    12     8     9    1
    13     9    12    2
    14    10     9    1
    15    10    11    2
    16    13    14    1
    17    13    16    1
    18    14    15    2
    19    17    16    1
    20    18    17    1
