@<TRIPOS>MOLECULE
IMPHY012599
 44 43 0 0 0
SMALL
GASTEIGER

@<TRIPOS>ATOM
      1 O          14.9904    0.2500    0.0000 O.3     1  UNL1       -0.3825
      2 C           7.1962   -0.2500    0.0000 C.3     1  UNL1       -0.0531
      3 C           6.3301   -0.7500    0.0000 C.3     1  UNL1       -0.0531
      4 C           8.0622   -0.7500    0.0000 C.3     1  UNL1       -0.0531
      5 C           5.4641   -0.2500    0.0000 C.3     1  UNL1       -0.0531
      6 C           8.9282   -0.2500    0.0000 C.3     1  UNL1       -0.0530
      7 C           4.5981   -0.7500    0.0000 C.3     1  UNL1       -0.0531
      8 C           9.7942   -0.7500    0.0000 C.3     1  UNL1       -0.0522
      9 C           3.7320   -0.2500    0.0000 C.3     1  UNL1       -0.0533
     10 C          10.6603   -0.2500    0.0000 C.3     1  UNL1       -0.0422
     11 C           2.8660   -0.7500    0.0000 C.3     1  UNL1       -0.0559
     12 C          11.5263   -0.7500    0.0000 C.3     1  UNL1        0.0092
     13 C           2.0000   -0.2500    0.0000 C.3     1  UNL1       -0.0653
     14 C          12.3923   -0.2500    0.0000 C.1     1  UNL1       -0.0999
     15 C          13.2583    0.2500    0.0000 C.1     1  UNL1       -0.0743
     16 C          14.1244    0.7500    0.0000 C.3     1  UNL1        0.1048
     17 H           7.5947    0.2249    0.0000 H       1  UNL1        0.0265
     18 H           6.7976    0.2249    0.0000 H       1  UNL1        0.0265
     19 H           5.9316   -1.2250    0.0000 H       1  UNL1        0.0265
     20 H           6.7287   -1.2250    0.0000 H       1  UNL1        0.0265
     21 H           7.6636   -1.2250    0.0000 H       1  UNL1        0.0265
     22 H           8.4607   -1.2250    0.0000 H       1  UNL1        0.0265
     23 H           5.8626    0.2249    0.0000 H       1  UNL1        0.0265
     24 H           5.0656    0.2249    0.0000 H       1  UNL1        0.0265
     25 H           9.3267    0.2249    0.0000 H       1  UNL1        0.0265
     26 H           8.5297    0.2249    0.0000 H       1  UNL1        0.0265
     27 H           4.1996   -1.2250    0.0000 H       1  UNL1        0.0265
     28 H           4.9966   -1.2250    0.0000 H       1  UNL1        0.0265
     29 H           9.3957   -1.2250    0.0000 H       1  UNL1        0.0266
     30 H          10.1928   -1.2250    0.0000 H       1  UNL1        0.0266
     31 H           4.1306    0.2249    0.0000 H       1  UNL1        0.0265
     32 H           3.3335    0.2249    0.0000 H       1  UNL1        0.0265
     33 H          11.0588    0.2249    0.0000 H       1  UNL1        0.0274
     34 H          10.2617    0.2249    0.0000 H       1  UNL1        0.0274
     35 H           2.4675   -1.2250    0.0000 H       1  UNL1        0.0263
     36 H           3.2646   -1.2250    0.0000 H       1  UNL1        0.0263
     37 H          11.1278   -1.2250    0.0000 H       1  UNL1        0.0397
     38 H          11.9248   -1.2250    0.0000 H       1  UNL1        0.0397
     39 H           2.3100    0.2869    0.0000 H       1  UNL1        0.0230
     40 H           1.4631    0.0600    0.0000 H       1  UNL1        0.0230
     41 H           1.6900   -0.7869    0.0000 H       1  UNL1        0.0230
     42 H          14.5229    1.2250    0.0000 H       1  UNL1        0.0694
     43 H          13.7258    1.2250    0.0000 H       1  UNL1        0.0694
     44 H          15.5273    0.5600    0.0000 H       1  UNL1        0.2107
@<TRIPOS>BOND
     1     1    16    1
     2     1    44    1
     3     2     3    1
     4     2     4    1
     5     2    17    1
     6     2    18    1
     7     3     5    1
     8     3    19    1
     9     3    20    1
    10     4     6    1
    11     4    21    1
    12     4    22    1
    13     5     7    1
    14     5    23    1
    15     5    24    1
    16     6     8    1
    17     6    25    1
    18     6    26    1
    19     7     9    1
    20     7    27    1
    21     7    28    1
    22     8    10    1
    23     8    29    1
    24     8    30    1
    25     9    11    1
    26     9    31    1
    27     9    32    1
    28    10    12    1
    29    10    33    1
    30    10    34    1
    31    11    13    1
    32    11    35    1
    33    11    36    1
    34    12    14    1
    35    12    37    1
    36    12    38    1
    37    13    39    1
    38    13    40    1
    39    13    41    1
    40    14    15    3
    41    15    16    1
    42    16    42    1
    43    16    43    1
