@<TRIPOS>MOLECULE
IMPHY002007
 54 57 0 0 0
SMALL
GASTEIGER

@<TRIPOS>ATOM
      1 O           4.2690   -1.2857    0.0000 O.3     1  UNL1       -0.3431
      2 O           6.0010   -1.2857    0.0000 O.3     1  UNL1       -0.3335
      3 O           4.2690   -4.2857    0.0000 O.3     1  UNL1       -0.3864
      4 O           6.0010   -3.2857    0.0000 O.3     1  UNL1       -0.3841
      5 O           2.5369   -3.2857    0.0000 O.3     1  UNL1       -0.3866
      6 O           6.8671    1.2143    0.0000 O.3     1  UNL1       -0.4802
      7 O           4.2690   -0.2857    0.0000 O.2     1  UNL1       -0.2889
      8 O           3.3648    1.2112    0.0000 O.3     1  UNL1       -0.5058
      9 O           5.1229    4.2836    0.0000 O.3     1  UNL1       -0.5065
     10 O          10.3312    0.2143    0.0000 O.3     1  UNL1       -0.5033
     11 O          10.3312   -1.7857    0.0000 O.3     1  UNL1       -0.5033
     12 C           4.2690   -3.2857    0.0000 C.3     1  UNL1        0.1140
     13 C           5.1350   -2.7857    0.0000 C.3     1  UNL1        0.1341
     14 C           3.4030   -2.7857    0.0000 C.3     1  UNL1        0.1095
     15 C           5.1350   -1.7857    0.0000 C.3     1  UNL1        0.1888
     16 C           3.4030   -1.7857    0.0000 C.3     1  UNL1        0.0873
     17 C           6.0010   -0.2857    0.0000 C.3     1  UNL1        0.1650
     18 C           6.8671    0.2143    0.0000 C.3     1  UNL1        0.1586
     19 C           2.5369   -1.2857    0.0000 C.3     1  UNL1       -0.0361
     20 C           5.1350    0.2143    0.0000 C.2     1  UNL1        0.2027
     21 C           7.7331   -0.2857    0.0000 C.ar    1  UNL1       -0.0007
     22 C           5.1350    1.2143    0.0000 C.ar    1  UNL1        0.1033
     23 C           6.0010    1.7143    0.0000 C.ar    1  UNL1        0.1391
     24 C           4.2250    1.7212    0.0000 C.ar    1  UNL1        0.1344
     25 C           8.5991    0.2143    0.0000 C.ar    1  UNL1       -0.0098
     26 C           7.7331   -1.2857    0.0000 C.ar    1  UNL1       -0.0513
     27 C           6.0171    2.7558    0.0000 C.ar    1  UNL1        0.0225
     28 C           4.2170    2.7628    0.0000 C.ar    1  UNL1        0.0222
     29 C           5.1191    3.2836    0.0000 C.ar    1  UNL1        0.1238
     30 C           9.4651   -0.2857    0.0000 C.ar    1  UNL1        0.1586
     31 C           8.5991   -1.7857    0.0000 C.ar    1  UNL1       -0.0162
     32 C           9.4651   -1.2857    0.0000 C.ar    1  UNL1        0.1582
     33 H           3.7320   -3.5957    0.0000 H       1  UNL1        0.0648
     34 H           5.1350   -3.4057    0.0000 H       1  UNL1        0.0671
     35 H           3.4030   -3.4057    0.0000 H       1  UNL1        0.0646
     36 H           5.1350   -1.1657    0.0000 H       1  UNL1        0.0938
     37 H           3.4030   -1.1657    0.0000 H       1  UNL1        0.0621
     38 H           6.5380   -0.5957    0.0000 H       1  UNL1        0.0722
     39 H           7.4040    0.5243    0.0000 H       1  UNL1        0.0815
     40 H           2.8469   -0.7487    0.0000 H       1  UNL1        0.0255
     41 H           2.0000   -0.9757    0.0000 H       1  UNL1        0.0255
     42 H           2.2269   -1.8226    0.0000 H       1  UNL1        0.0255
     43 H           3.7320   -4.5957    0.0000 H       1  UNL1        0.2100
     44 H           6.0010   -3.9057    0.0000 H       1  UNL1        0.2101
     45 H           2.0000   -2.9757    0.0000 H       1  UNL1        0.2100
     46 H           8.5991    0.8343    0.0000 H       1  UNL1        0.0659
     47 H           7.1962   -1.5957    0.0000 H       1  UNL1        0.0623
     48 H           6.5576    3.0596    0.0000 H       1  UNL1        0.0691
     49 H           3.6788    3.0707    0.0000 H       1  UNL1        0.0691
     50 H           8.5991   -2.4057    0.0000 H       1  UNL1        0.0655
     51 H           2.8243    1.5150    0.0000 H       1  UNL1        0.2922
     52 H           4.5872    4.5957    0.0000 H       1  UNL1        0.2921
     53 H          10.3312    0.8343    0.0000 H       1  UNL1        0.2923
     54 H          10.8681   -1.4757    0.0000 H       1  UNL1        0.2923
@<TRIPOS>BOND
     1     1    15    1
     2     1    16    1
     3    15     2    1
     4    17     2    1
     5    12     3    1
     6     3    43    1
     7    13     4    1
     8     4    44    1
     9    14     5    1
    10     5    45    1
    11     6    18    1
    12     6    23    1
    13     7    20    2
    14     8    24    1
    15     8    51    1
    16     9    29    1
    17     9    52    1
    18    10    30    1
    19    10    53    1
    20    11    32    1
    21    11    54    1
    22    12    13    1
    23    12    14    1
    24    12    33    1
    25    13    15    1
    26    13    34    1
    27    14    16    1
    28    14    35    1
    29    15    36    1
    30    16    19    1
    31    16    37    1
    32    17    18    1
    33    17    20    1
    34    17    38    1
    35    18    21    1
    36    18    39    1
    37    19    40    1
    38    19    41    1
    39    19    42    1
    40    20    22    1
    41    21    25   ar
    42    21    26   ar
    43    22    23   ar
    44    22    24   ar
    45    23    27   ar
    46    24    28   ar
    47    25    30   ar
    48    25    46    1
    49    26    31   ar
    50    26    47    1
    51    27    29   ar
    52    27    48    1
    53    28    29   ar
    54    28    49    1
    55    30    32   ar
    56    31    32   ar
    57    31    50    1
