@<TRIPOS>MOLECULE
IMPHY009861
 21 21 0 0 0
SMALL
GASTEIGER

@<TRIPOS>ATOM
      1 O           2.8660    1.2500    0.0000 O.3     1  UNL1       -0.4260
      2 O           4.5981    1.2500    0.0000 O.2     1  UNL1       -0.2507
      3 C           2.8660   -1.7500    0.0000 C.ar    1  UNL1       -0.0502
      4 C           2.8660    0.2500    0.0000 C.ar    1  UNL1        0.1316
      5 C           3.7320   -1.2500    0.0000 C.ar    1  UNL1       -0.0554
      6 C           2.0000   -1.2500    0.0000 C.ar    1  UNL1       -0.0554
      7 C           3.7320   -0.2500    0.0000 C.ar    1  UNL1       -0.0190
      8 C           2.0000   -0.2500    0.0000 C.ar    1  UNL1       -0.0190
      9 C           2.8660   -2.7500    0.0000 C.3     1  UNL1       -0.0397
     10 C           3.7320    1.7500    0.0000 C.2     1  UNL1        0.3092
     11 C           3.7320    2.7500    0.0000 C.3     1  UNL1        0.0336
     12 H           4.2690   -1.5600    0.0000 H       1  UNL1        0.0621
     13 H           1.4631   -1.5600    0.0000 H       1  UNL1        0.0621
     14 H           4.2690    0.0600    0.0000 H       1  UNL1        0.0654
     15 H           1.4631    0.0600    0.0000 H       1  UNL1        0.0654
     16 H           2.2460   -2.7500    0.0000 H       1  UNL1        0.0278
     17 H           2.8660   -3.3700    0.0000 H       1  UNL1        0.0278
     18 H           3.4860   -2.7500    0.0000 H       1  UNL1        0.0278
     19 H           4.3520    2.7500    0.0000 H       1  UNL1        0.0342
     20 H           3.7320    3.3700    0.0000 H       1  UNL1        0.0342
     21 H           3.1120    2.7500    0.0000 H       1  UNL1        0.0342
@<TRIPOS>BOND
     1     1     4    1
     2     1    10    1
     3     2    10    2
     4     3     5   ar
     5     3     6   ar
     6     3     9    1
     7     4     7   ar
     8     4     8   ar
     9     5     7   ar
    10     5    12    1
    11     6     8   ar
    12     6    13    1
    13     7    14    1
    14     8    15    1
    15     9    16    1
    16     9    17    1
    17     9    18    1
    18    10    11    1
    19    11    19    1
    20    11    20    1
    21    11    21    1
