@<TRIPOS>MOLECULE
IMPHY007393
 50 53 0 0 0
SMALL
GASTEIGER

@<TRIPOS>ATOM
      1 O           4.6559    2.6176    0.0000 O.3     1  UNL1       -0.3871
      2 O           2.0196    0.1207    0.0000 O.2     1  UNL1       -0.2865
      3 O           5.8628    2.7080    0.0000 O.2     1  UNL1       -0.2756
      4 O           2.0038   -1.9276    0.0000 O.2     1  UNL1       -0.4919
      5 O           6.4043   -1.4170    0.0000 O.3     1  UNL1       -0.4911
      6 O           8.1860   -0.4066    0.0000 O.3     1  UNL1       -0.4914
      7 N           3.8827    1.6125    0.0000 N.am    1  UNL1       -0.2905
      8 C           4.6559   -0.3825    0.0000 C.3     1  UNL1        0.0402
      9 C           3.7898    0.1175    0.0000 C.3     1  UNL1        0.1157
     10 C           3.7898    1.1176    0.0000 C.3     1  UNL1        0.0071
     11 C           5.9041    0.4454    0.0000 C.3     1  UNL1        0.0366
     12 C           5.5219    0.1175    0.0000 C.ar    1  UNL1        0.0129
     13 C           4.6719   -1.4240    0.0000 C.3     1  UNL1       -0.0183
     14 C           4.6559    1.6176    0.0000 C.3     1  UNL1        0.0830
     15 C           2.8798   -0.3893    0.0000 C.2     1  UNL1        0.2212
     16 C           5.3628    1.8420    0.0000 C.2     1  UNL1        0.2171
     17 C           5.5219    1.1176    0.0000 C.ar    1  UNL1       -0.0116
     18 C           3.7739   -1.9517    0.0000 C.2     1  UNL1       -0.0378
     19 C           2.8718   -1.4309    0.0000 C.2     1  UNL1        0.1606
     20 C           6.4158   -0.4171    0.0000 C.ar    1  UNL1        0.1656
     21 C           3.1439    2.2864    0.0000 C.3     1  UNL1        0.0042
     22 C           6.4158    1.6522    0.0000 C.ar    1  UNL1       -0.0522
     23 C           7.3219    0.0967    0.0000 C.ar    1  UNL1        0.1618
     24 C           7.3219    1.1384    0.0000 C.ar    1  UNL1       -0.0159
     25 C           2.0000   -2.9276    0.0000 C.3     1  UNL1        0.0789
     26 C           7.2644   -1.9270    0.0000 C.3     1  UNL1        0.0790
     27 C           9.0539    0.0901    0.0000 C.3     1  UNL1        0.0790
     28 H           3.5778    1.7002    0.0000 H       1  UNL1        0.0319
     29 H           3.1792    1.0099    0.0000 H       1  UNL1        0.0319
     30 H           6.2087   -0.0946    0.0000 H       1  UNL1        0.0368
     31 H           6.4646    0.7105    0.0000 H       1  UNL1        0.0368
     32 H           4.8900   -2.0044    0.0000 H       1  UNL1        0.0318
     33 H           5.2811   -1.3085    0.0000 H       1  UNL1        0.0318
     34 H           4.1189    1.9276    0.0000 H       1  UNL1        0.0644
     35 H           3.7763   -2.5717    0.0000 H       1  UNL1        0.0610
     36 H           3.5617    2.7444    0.0000 H       1  UNL1        0.0429
     37 H           2.6858    2.7042    0.0000 H       1  UNL1        0.0429
     38 H           2.7260    1.8283    0.0000 H       1  UNL1        0.0429
     39 H           6.4087    2.2722    0.0000 H       1  UNL1        0.0622
     40 H           4.1189    2.9276    0.0000 H       1  UNL1        0.2102
     41 H           7.8576    1.4504    0.0000 H       1  UNL1        0.0655
     42 H           1.3800   -2.9252    0.0000 H       1  UNL1        0.0660
     43 H           1.9976   -3.5475    0.0000 H       1  UNL1        0.0660
     44 H           2.6200   -2.9299    0.0000 H       1  UNL1        0.0660
     45 H           6.9483   -2.4603    0.0000 H       1  UNL1        0.0660
     46 H           7.7978   -2.2432    0.0000 H       1  UNL1        0.0660
     47 H           7.5806   -1.3937    0.0000 H       1  UNL1        0.0660
     48 H           9.3619   -0.4481    0.0000 H       1  UNL1        0.0660
     49 H           9.5921    0.3980    0.0000 H       1  UNL1        0.0660
     50 H           8.7460    0.6282    0.0000 H       1  UNL1        0.0660
@<TRIPOS>BOND
     1    14     1    1
     2     1    40    1
     3     2    15    2
     4     3    16    2
     5     4    19    1
     6     4    25    1
     7     5    20    1
     8     5    26    1
     9     6    23    1
    10     6    27    1
    11     9     7    1
    12     7    16   am
    13     7    21    1
    14     8     9    1
    15     8    11    1
    16     8    12    1
    17     8    13    1
    18     9    10    1
    19     9    15    1
    20    10    14    1
    21    10    28    1
    22    10    29    1
    23    11    16    1
    24    11    30    1
    25    11    31    1
    26    12    17   ar
    27    12    20   ar
    28    13    18    1
    29    13    32    1
    30    13    33    1
    31    14    17    1
    32    14    34    1
    33    15    19    1
    34    17    22   ar
    35    18    19    2
    36    18    35    1
    37    20    23   ar
    38    21    36    1
    39    21    37    1
    40    21    38    1
    41    22    24   ar
    42    22    39    1
    43    23    24   ar
    44    24    41    1
    45    25    42    1
    46    25    43    1
    47    25    44    1
    48    26    45    1
    49    26    46    1
    50    26    47    1
    51    27    48    1
    52    27    49    1
    53    27    50    1
