@<TRIPOS>MOLECULE
IMPHY007230
 19 18 0 0 0
SMALL
GASTEIGER

@<TRIPOS>ATOM
      1 O           4.5981    0.4400    0.0000 O.3     1  UNL1       -0.4594
      2 O           3.7320   -1.0600    0.0000 O.2     1  UNL1       -0.2420
      3 O           2.0000   -0.0600    0.0000 O.2     1  UNL1       -0.2888
      4 C           6.3301    0.4400    0.0000 C.3     1  UNL1       -0.0188
      5 C           7.1962   -0.0600    0.0000 C.3     1  UNL1       -0.0528
      6 C           5.4641   -0.0600    0.0000 C.3     1  UNL1        0.0929
      7 C           8.0622    0.4400    0.0000 C.3     1  UNL1       -0.0652
      8 C           3.7320   -0.0600    0.0000 C.2     1  UNL1        0.3717
      9 C           2.8660    0.4400    0.0000 C.2     1  UNL1        0.2266
     10 H           6.7287    0.9149    0.0000 H       1  UNL1        0.0298
     11 H           5.9316    0.9149    0.0000 H       1  UNL1        0.0298
     12 H           6.7976   -0.5349    0.0000 H       1  UNL1        0.0264
     13 H           7.5947   -0.5349    0.0000 H       1  UNL1        0.0264
     14 H           5.0656   -0.5349    0.0000 H       1  UNL1        0.0697
     15 H           5.8626   -0.5349    0.0000 H       1  UNL1        0.0697
     16 H           8.3722   -0.0969    0.0000 H       1  UNL1        0.0230
     17 H           8.5991    0.7500    0.0000 H       1  UNL1        0.0230
     18 H           7.7522    0.9769    0.0000 H       1  UNL1        0.0230
     19 H           2.8660    1.0600    0.0000 H       1  UNL1        0.1151
@<TRIPOS>BOND
     1     1     6    1
     2     1     8    1
     3     2     8    2
     4     3     9    2
     5     4     5    1
     6     4     6    1
     7     4    10    1
     8     4    11    1
     9     5     7    1
    10     5    12    1
    11     5    13    1
    12     6    14    1
    13     6    15    1
    14     7    16    1
    15     7    17    1
    16     7    18    1
    17     8     9    1
    18     9    19    1
