@<TRIPOS>MOLECULE
IMPHY016342
 43 42 0 0 0
SMALL
GASTEIGER

@<TRIPOS>ATOM
      1 O           2.5369   -0.2500    0.0000 O.3     1  UNL1       -0.3910
      2 C           9.4651   -0.2500    0.0000 C.3     1  UNL1       -0.0313
      3 C          10.3312    0.2500    0.0000 C.3     1  UNL1       -0.0313
      4 C           6.8671    0.2500    0.0000 C.3     1  UNL1       -0.0313
      5 C          12.9292   -0.2500    0.0000 C.3     1  UNL1       -0.0313
      6 C           8.5991    0.2500    0.0000 C.2     1  UNL1       -0.0876
      7 C          11.1972   -0.2500    0.0000 C.2     1  UNL1       -0.0876
      8 C           6.0010   -0.2500    0.0000 C.3     1  UNL1       -0.0313
      9 C           7.7331   -0.2500    0.0000 C.2     1  UNL1       -0.0876
     10 C          13.7953    0.2500    0.0000 C.3     1  UNL1       -0.0313
     11 C          12.0632    0.2500    0.0000 C.2     1  UNL1       -0.0876
     12 C           5.1350    0.2500    0.0000 C.2     1  UNL1       -0.0855
     13 C          14.6613   -0.2500    0.0000 C.2     1  UNL1       -0.0879
     14 C           4.2690   -0.2500    0.0000 C.2     1  UNL1       -0.0629
     15 C          15.5273    0.2500    0.0000 C.2     1  UNL1       -0.0910
     16 C           3.4030    0.2500    0.0000 C.3     1  UNL1        0.0624
     17 C          16.3933   -0.2500    0.0000 C.3     1  UNL1       -0.0468
     18 H           9.0666   -0.7249    0.0000 H       1  UNL1        0.0310
     19 H           9.8637   -0.7249    0.0000 H       1  UNL1        0.0310
     20 H          10.7297    0.7249    0.0000 H       1  UNL1        0.0310
     21 H           9.9326    0.7249    0.0000 H       1  UNL1        0.0310
     22 H           7.2656    0.7249    0.0000 H       1  UNL1        0.0310
     23 H           6.4685    0.7249    0.0000 H       1  UNL1        0.0310
     24 H          12.5307   -0.7249    0.0000 H       1  UNL1        0.0310
     25 H          13.3278   -0.7249    0.0000 H       1  UNL1        0.0310
     26 H           8.5991    0.8700    0.0000 H       1  UNL1        0.0569
     27 H          11.1972   -0.8700    0.0000 H       1  UNL1        0.0569
     28 H           5.6025   -0.7249    0.0000 H       1  UNL1        0.0310
     29 H           6.3996   -0.7249    0.0000 H       1  UNL1        0.0310
     30 H           7.7331   -0.8700    0.0000 H       1  UNL1        0.0569
     31 H          14.1938    0.7249    0.0000 H       1  UNL1        0.0310
     32 H          13.3967    0.7249    0.0000 H       1  UNL1        0.0310
     33 H          12.0632    0.8700    0.0000 H       1  UNL1        0.0569
     34 H           5.1350    0.8700    0.0000 H       1  UNL1        0.0570
     35 H          14.6613   -0.8700    0.0000 H       1  UNL1        0.0569
     36 H           4.2690   -0.8700    0.0000 H       1  UNL1        0.0591
     37 H          15.5273    0.8700    0.0000 H       1  UNL1        0.0566
     38 H           3.8015    0.7249    0.0000 H       1  UNL1        0.0601
     39 H           3.0044    0.7249    0.0000 H       1  UNL1        0.0601
     40 H          16.0833   -0.7869    0.0000 H       1  UNL1        0.0272
     41 H          16.9303   -0.5600    0.0000 H       1  UNL1        0.0272
     42 H          16.7033    0.2869    0.0000 H       1  UNL1        0.0272
     43 H           2.0000    0.0600    0.0000 H       1  UNL1        0.2098
@<TRIPOS>BOND
     1     1    16    1
     2     1    43    1
     3     2     3    1
     4     2     6    1
     5     2    18    1
     6     2    19    1
     7     3     7    1
     8     3    20    1
     9     3    21    1
    10     4     8    1
    11     4     9    1
    12     4    22    1
    13     4    23    1
    14     5    10    1
    15     5    11    1
    16     5    24    1
    17     5    25    1
    18     6     9    2
    19     6    26    1
    20     7    11    2
    21     7    27    1
    22     8    12    1
    23     8    28    1
    24     8    29    1
    25     9    30    1
    26    10    13    1
    27    10    31    1
    28    10    32    1
    29    11    33    1
    30    12    14    2
    31    12    34    1
    32    13    15    2
    33    13    35    1
    34    14    16    1
    35    14    36    1
    36    15    17    1
    37    15    37    1
    38    16    38    1
    39    16    39    1
    40    17    40    1
    41    17    41    1
    42    17    42    1
