@<TRIPOS>MOLECULE
IMPHY017686
 13 12 0 0 0
SMALL
GASTEIGER

@<TRIPOS>ATOM
      1 S           2.0000    0.5000    0.0000 S.2     1  UNL1        0.0203
      2 N           3.7320   -0.5000    0.0000 N.2     1  UNL1       -0.2346
      3 C           5.4641   -0.5000    0.0000 C.3     1  UNL1       -0.0355
      4 C           4.5981    0.0000    0.0000 C.3     1  UNL1        0.0493
      5 C           6.3301   -0.0000    0.0000 C.3     1  UNL1       -0.0636
      6 C           2.8660    0.0000    0.0000 C.1     1  UNL1        0.0358
      7 H           5.0656   -0.9749    0.0000 H       1  UNL1        0.0280
      8 H           5.8626   -0.9749    0.0000 H       1  UNL1        0.0280
      9 H           4.9966    0.4749    0.0000 H       1  UNL1        0.0516
     10 H           4.1996    0.4749    0.0000 H       1  UNL1        0.0516
     11 H           6.6401   -0.5369    0.0000 H       1  UNL1        0.0230
     12 H           6.8671    0.3100    0.0000 H       1  UNL1        0.0230
     13 H           6.0201    0.5369    0.0000 H       1  UNL1        0.0230
@<TRIPOS>BOND
     1     1     6    2
     2     2     4    1
     3     2     6    2
     4     3     4    1
     5     3     5    1
     6     3     7    1
     7     3     8    1
     8     4     9    1
     9     4    10    1
    10     5    11    1
    11     5    12    1
    12     5    13    1
