@<TRIPOS>MOLECULE
IMPHY017279
 26 26 0 0 0
SMALL
GASTEIGER

@<TRIPOS>ATOM
      1 O           7.1962   -1.0000    0.0000 O.2     1  UNL1       -0.4272
      2 O           8.9282   -1.0000    0.0000 O.2     1  UNL1       -0.2452
      3 C           4.5981   -0.5000    0.0000 C.3     1  UNL1       -0.0462
      4 C           3.7320   -1.0000    0.0000 C.3     1  UNL1       -0.0529
      5 C           5.4641   -1.0000    0.0000 C.3     1  UNL1        0.0056
      6 C           2.8660   -0.5000    0.0000 C.3     1  UNL1       -0.0559
      7 C           6.3301   -0.5000    0.0000 C.ar    1  UNL1        0.1091
      8 C           2.0000   -1.0000    0.0000 C.3     1  UNL1       -0.0653
      9 C           6.3301    0.5000    0.0000 C.ar    1  UNL1       -0.0232
     10 C           7.1962    1.0000    0.0000 C.ar    1  UNL1       -0.0518
     11 C           8.0622   -0.5000    0.0000 C.ar    1  UNL1        0.3369
     12 C           8.0622    0.5000    0.0000 C.ar    1  UNL1        0.0230
     13 H           4.9966   -0.0251    0.0000 H       1  UNL1        0.0269
     14 H           4.1996   -0.0251    0.0000 H       1  UNL1        0.0269
     15 H           3.3335   -1.4750    0.0000 H       1  UNL1        0.0265
     16 H           4.1306   -1.4750    0.0000 H       1  UNL1        0.0265
     17 H           5.0656   -1.4750    0.0000 H       1  UNL1        0.0343
     18 H           5.8626   -1.4750    0.0000 H       1  UNL1        0.0343
     19 H           3.2646   -0.0251    0.0000 H       1  UNL1        0.0263
     20 H           2.4675   -0.0251    0.0000 H       1  UNL1        0.0263
     21 H           1.6900   -0.4631    0.0000 H       1  UNL1        0.0230
     22 H           1.4631   -1.3100    0.0000 H       1  UNL1        0.0230
     23 H           2.3100   -1.5369    0.0000 H       1  UNL1        0.0230
     24 H           5.7932    0.8100    0.0000 H       1  UNL1        0.0651
     25 H           7.1962    1.6200    0.0000 H       1  UNL1        0.0621
     26 H           8.5991    0.8100    0.0000 H       1  UNL1        0.0689
@<TRIPOS>BOND
     1     1     7   ar
     2     1    11   ar
     3     2    11    2
     4     3     4    1
     5     3     5    1
     6     3    13    1
     7     3    14    1
     8     4     6    1
     9     4    15    1
    10     4    16    1
    11     5     7    1
    12     5    17    1
    13     5    18    1
    14     6     8    1
    15     6    19    1
    16     6    20    1
    17     7     9   ar
    18     8    21    1
    19     8    22    1
    20     8    23    1
    21     9    10   ar
    22     9    24    1
    23    10    12   ar
    24    10    25    1
    25    11    12   ar
    26    12    26    1
