@<TRIPOS>MOLECULE
IMPHY002161
 28 30 0 0 0
SMALL
GASTEIGER

@<TRIPOS>ATOM
      1 O           3.7702   -0.9397    0.0000 O.2     1  UNL1       -0.4558
      2 O           7.3424   -0.7097    0.0000 O.2     1  UNL1       -0.4590
      3 O           5.5301   -1.9050    0.0000 O.3     1  UNL1       -0.4884
      4 O           5.5301    2.0950    0.0000 O.3     1  UNL1       -0.5052
      5 O           3.7817    2.1296    0.0000 O.2     1  UNL1       -0.2869
      6 C           4.6641    0.5950    0.0000 C.ar    1  UNL1        0.1097
      7 C           4.6641   -0.4050    0.0000 C.ar    1  UNL1        0.1874
      8 C           6.3961    0.5950    0.0000 C.ar    1  UNL1        0.0661
      9 C           6.3961   -0.4050    0.0000 C.ar    1  UNL1        0.1834
     10 C           5.5301   -0.9050    0.0000 C.ar    1  UNL1        0.2063
     11 C           5.5301    1.0950    0.0000 C.ar    1  UNL1        0.1422
     12 C           3.7702    1.1297    0.0000 C.ar    1  UNL1        0.1964
     13 C           7.3424    0.8997    0.0000 C.ar    1  UNL1       -0.0125
     14 C           2.8641   -0.4258    0.0000 C.ar    1  UNL1        0.1064
     15 C           2.8641    0.6158    0.0000 C.ar    1  UNL1        0.0237
     16 C           7.9260    0.0950    0.0000 C.ar    1  UNL1        0.0934
     17 C           2.0000   -0.9292    0.0000 C.3     1  UNL1       -0.0062
     18 C           6.3961   -2.4050    0.0000 C.3     1  UNL1        0.0791
     19 H           7.5350    1.4890    0.0000 H       1  UNL1        0.0656
     20 H           2.3284    0.9279    0.0000 H       1  UNL1        0.0689
     21 H           8.5460    0.0950    0.0000 H       1  UNL1        0.1030
     22 H           1.6879   -0.3934    0.0000 H       1  UNL1        0.0308
     23 H           1.4643   -1.2412    0.0000 H       1  UNL1        0.0308
     24 H           2.3121   -1.4649    0.0000 H       1  UNL1        0.0308
     25 H           6.0671    2.4050    0.0000 H       1  UNL1        0.2922
     26 H           6.0862   -2.9419    0.0000 H       1  UNL1        0.0660
     27 H           6.9331   -2.7150    0.0000 H       1  UNL1        0.0660
     28 H           6.7062   -1.8681    0.0000 H       1  UNL1        0.0660
@<TRIPOS>BOND
     1     1     7   ar
     2     1    14   ar
     3     2     9   ar
     4     2    16   ar
     5     3    10    1
     6     3    18    1
     7     4    11    1
     8     4    25    1
     9     5    12    2
    10     6     7   ar
    11     6    11   ar
    12     6    12   ar
    13     7    10   ar
    14     8     9   ar
    15     8    11   ar
    16     8    13   ar
    17     9    10   ar
    18    12    15   ar
    19    13    16   ar
    20    13    19    1
    21    14    15   ar
    22    14    17    1
    23    15    20    1
    24    16    21    1
    25    17    22    1
    26    17    23    1
    27    17    24    1
    28    18    26    1
    29    18    27    1
    30    18    28    1
