@<TRIPOS>MOLECULE
IMPHY008030
 73 78 0 0 0
SMALL
GASTEIGER

@<TRIPOS>ATOM
      1 O           5.5954   -2.2515    0.0000 O.3     1  UNL1       -0.3448
      2 O           5.7968    1.4833    0.0000 O.3     1  UNL1       -0.3912
      3 O           3.9300   -1.1704    0.0000 O.3     1  UNL1       -0.3480
      4 O          12.0027    3.1277    0.0000 O.2     1  UNL1       -0.2974
      5 C           6.6628   -0.0167    0.0000 C.3     1  UNL1        0.0026
      6 C           7.5288   -0.5167    0.0000 C.3     1  UNL1       -0.0275
      7 C           5.9258   -0.6838    0.0000 C.3     1  UNL1        0.0008
      8 C           8.3948   -0.0167    0.0000 C.3     1  UNL1       -0.0341
      9 C           8.3948    0.9833    0.0000 C.3     1  UNL1       -0.0299
     10 C           6.3309   -1.5916    0.0000 C.3     1  UNL1        0.0660
     11 C           7.3196   -1.4885    0.0000 C.3     1  UNL1       -0.0225
     12 C           6.6628    0.9833    0.0000 C.3     1  UNL1        0.0615
     13 C           9.2888    1.5180    0.0000 C.3     1  UNL1       -0.0253
     14 C           7.5288    1.4833    0.0000 C.3     1  UNL1       -0.0227
     15 C           4.9434   -0.7905    0.0000 C.3     1  UNL1        0.0161
     16 C           9.2888   -0.5514    0.0000 C.3     1  UNL1       -0.0494
     17 C          10.1949    1.0041    0.0000 C.3     1  UNL1       -0.0287
     18 C           4.7396   -1.7574    0.0000 C.3     1  UNL1        0.1732
     19 C           5.7968    0.4833    0.0000 C.3     1  UNL1       -0.0566
     20 C          10.1949   -0.0375    0.0000 C.3     1  UNL1       -0.0491
     21 C           9.2637    2.6027    0.0000 C.3     1  UNL1       -0.0404
     22 C           8.4189    2.0113    0.0000 C.3     1  UNL1       -0.0590
     23 C          11.1386    1.5394    0.0000 C.3     1  UNL1        0.0092
     24 C           4.2723   -0.0491    0.0000 C.3     1  UNL1       -0.0572
     25 C           4.6359   -2.7520    0.0000 C.3     1  UNL1        0.0020
     26 C          10.1949    3.1596    0.0000 C.3     1  UNL1        0.0063
     27 C          11.1386    2.6243    0.0000 C.2     1  UNL1        0.1337
     28 C           3.7227   -3.1596    0.0000 C.3     1  UNL1       -0.0435
     29 C           3.0169   -1.5779    0.0000 C.3     1  UNL1        0.0535
     30 C           2.9132   -2.5725    0.0000 C.3     1  UNL1       -0.0201
     31 C           2.0000   -2.9800    0.0000 C.3     1  UNL1       -0.0603
     32 H           8.2158   -1.0172    0.0000 H       1  UNL1        0.0310
     33 H           5.5777    0.0917    0.0000 H       1  UNL1        0.0336
     34 H           8.3883   -0.8667    0.0000 H       1  UNL1        0.0306
     35 H           9.1342    0.5640    0.0000 H       1  UNL1        0.0310
     36 H           6.6756   -2.3685    0.0000 H       1  UNL1        0.0600
     37 H           7.3187   -2.1085    0.0000 H       1  UNL1        0.0293
     38 H           7.9361   -1.5546    0.0000 H       1  UNL1        0.0293
     39 H           6.6628    1.6033    0.0000 H       1  UNL1        0.0599
     40 H           7.9274    1.9582    0.0000 H       1  UNL1        0.0293
     41 H           7.1303    1.9582    0.0000 H       1  UNL1        0.0293
     42 H           4.3448   -0.9522    0.0000 H       1  UNL1        0.0354
     43 H           8.8842   -1.0212    0.0000 H       1  UNL1        0.0268
     44 H           9.6824   -1.0304    0.0000 H       1  UNL1        0.0268
     45 H          10.9293    0.5763    0.0000 H       1  UNL1        0.0310
     46 H           6.1068    1.0202    0.0000 H       1  UNL1        0.0236
     47 H           5.2598    0.7933    0.0000 H       1  UNL1        0.0236
     48 H           5.4868   -0.0536    0.0000 H       1  UNL1        0.0236
     49 H          10.4039   -0.6212    0.0000 H       1  UNL1        0.0268
     50 H          10.8057    0.0686    0.0000 H       1  UNL1        0.0268
     51 H           9.0412    3.1814    0.0000 H       1  UNL1        0.0275
     52 H           8.6555    2.4825    0.0000 H       1  UNL1        0.0275
     53 H           8.7248    2.5506    0.0000 H       1  UNL1        0.0235
     54 H           7.8796    2.3171    0.0000 H       1  UNL1        0.0235
     55 H           8.1131    1.4720    0.0000 H       1  UNL1        0.0235
     56 H          11.3477    0.9557    0.0000 H       1  UNL1        0.0344
     57 H          11.7495    1.6454    0.0000 H       1  UNL1        0.0344
     58 H           4.7320    0.3670    0.0000 H       1  UNL1        0.0234
     59 H           3.8562    0.4106    0.0000 H       1  UNL1        0.0234
     60 H           3.8126   -0.4651    0.0000 H       1  UNL1        0.0234
     61 H           4.7864   -3.3535    0.0000 H       1  UNL1        0.0317
     62 H           5.2544   -2.7083    0.0000 H       1  UNL1        0.0317
     63 H          10.5885    3.6386    0.0000 H       1  UNL1        0.0342
     64 H           9.7903    3.6294    0.0000 H       1  UNL1        0.0342
     65 H           5.7968    2.1033    0.0000 H       1  UNL1        0.2098
     66 H           3.2771   -3.5906    0.0000 H       1  UNL1        0.0270
     67 H           4.0699   -3.6733    0.0000 H       1  UNL1        0.0270
     68 H           2.8664   -0.9764    0.0000 H       1  UNL1        0.0563
     69 H           2.3984   -1.6217    0.0000 H       1  UNL1        0.0563
     70 H           2.4113   -2.2085    0.0000 H       1  UNL1        0.0320
     71 H           1.7473   -2.4138    0.0000 H       1  UNL1        0.0233
     72 H           1.4338   -3.2327    0.0000 H       1  UNL1        0.0233
     73 H           2.2527   -3.5462    0.0000 H       1  UNL1        0.0233
@<TRIPOS>BOND
     1     1    10    1
     2    18     1    1
     3    12     2    1
     4     2    65    1
     5     3    18    1
     6     3    29    1
     7     4    27    2
     8     5     6    1
     9     5     7    1
    10     5    12    1
    11     5    19    1
    12     6     8    1
    13     6    11    1
    14     6    32    1
    15     7    10    1
    16     7    15    1
    17     7    33    1
    18     8     9    1
    19     8    16    1
    20     8    34    1
    21     9    13    1
    22     9    14    1
    23     9    35    1
    24    10    11    1
    25    10    36    1
    26    11    37    1
    27    11    38    1
    28    12    14    1
    29    12    39    1
    30    13    17    1
    31    13    21    1
    32    13    22    1
    33    14    40    1
    34    14    41    1
    35    15    18    1
    36    15    24    1
    37    15    42    1
    38    16    20    1
    39    16    43    1
    40    16    44    1
    41    17    20    1
    42    17    23    1
    43    17    45    1
    44    18    25    1
    45    19    46    1
    46    19    47    1
    47    19    48    1
    48    20    49    1
    49    20    50    1
    50    21    26    1
    51    21    51    1
    52    21    52    1
    53    22    53    1
    54    22    54    1
    55    22    55    1
    56    23    27    1
    57    23    56    1
    58    23    57    1
    59    24    58    1
    60    24    59    1
    61    24    60    1
    62    25    28    1
    63    25    61    1
    64    25    62    1
    65    26    27    1
    66    26    63    1
    67    26    64    1
    68    28    30    1
    69    28    66    1
    70    28    67    1
    71    29    30    1
    72    29    68    1
    73    29    69    1
    74    30    31    1
    75    30    70    1
    76    31    71    1
    77    31    72    1
    78    31    73    1
