@<TRIPOS>MOLECULE
IMPHY006211
 42 43 0 0 0
SMALL
GASTEIGER

@<TRIPOS>ATOM
      1 O           8.5991   -1.1160    0.0000 O.3     1  UNL1       -0.4555
      2 O           9.8312    1.7500    0.0000 O.3     1  UNL1       -0.3772
      3 O          10.3312   -2.1160    0.0000 O.3     1  UNL1       -0.3856
      4 O          12.0632   -1.1160    0.0000 O.3     1  UNL1       -0.3890
      5 O          11.8312    1.7500    0.0000 O.3     1  UNL1       -0.4786
      6 O          10.3312    2.6160    0.0000 O.2     1  UNL1       -0.2478
      7 O           7.7331    0.3840    0.0000 O.2     1  UNL1       -0.2456
      8 O           2.5369   -2.6160    0.0000 O.3     1  UNL1       -0.5068
      9 C          10.3312    0.8840    0.0000 C.3     1  UNL1        0.1677
     10 C           9.4651   -0.6160    0.0000 C.3     1  UNL1        0.1346
     11 C           9.4651    0.3840    0.0000 C.3     1  UNL1        0.0264
     12 C          11.1972    0.3840    0.0000 C.3     1  UNL1        0.0153
     13 C          10.3312   -1.1160    0.0000 C.3     1  UNL1        0.1180
     14 C          11.1972   -0.6160    0.0000 C.3     1  UNL1        0.0877
     15 C          10.8312    1.7500    0.0000 C.2     1  UNL1        0.3370
     16 C           7.7331   -0.6160    0.0000 C.2     1  UNL1        0.3323
     17 C           6.8671   -1.1160    0.0000 C.2     1  UNL1        0.0231
     18 C           6.0010   -0.6160    0.0000 C.2     1  UNL1       -0.0478
     19 C           5.1350   -1.1160    0.0000 C.ar    1  UNL1       -0.0246
     20 C           4.2690   -0.6160    0.0000 C.ar    1  UNL1       -0.0511
     21 C           5.1350   -2.1160    0.0000 C.ar    1  UNL1       -0.0511
     22 C           3.4030   -1.1160    0.0000 C.ar    1  UNL1       -0.0196
     23 C           4.2690   -2.6160    0.0000 C.ar    1  UNL1       -0.0196
     24 C           3.4030   -2.1160    0.0000 C.ar    1  UNL1        0.1169
     25 H           9.4651   -1.2360    0.0000 H       1  UNL1        0.0762
     26 H           9.2531    0.9666    0.0000 H       1  UNL1        0.0335
     27 H           8.8546    0.2763    0.0000 H       1  UNL1        0.0335
     28 H          11.8078    0.2763    0.0000 H       1  UNL1        0.0324
     29 H          11.4092    0.9666    0.0000 H       1  UNL1        0.0324
     30 H          10.8681   -1.4260    0.0000 H       1  UNL1        0.0656
     31 H          11.7341   -0.3060    0.0000 H       1  UNL1        0.0621
     32 H           9.2112    1.7500    0.0000 H       1  UNL1        0.2109
     33 H          10.8681   -2.4260    0.0000 H       1  UNL1        0.2100
     34 H          12.6002   -0.8060    0.0000 H       1  UNL1        0.2099
     35 H          12.1412    2.2869    0.0000 H       1  UNL1        0.2951
     36 H           6.8671   -1.7360    0.0000 H       1  UNL1        0.0689
     37 H           6.0010    0.0040    0.0000 H       1  UNL1        0.0626
     38 H           4.2690    0.0040    0.0000 H       1  UNL1        0.0625
     39 H           5.6720   -2.4260    0.0000 H       1  UNL1        0.0625
     40 H           2.8660   -0.8060    0.0000 H       1  UNL1        0.0654
     41 H           4.2690   -3.2360    0.0000 H       1  UNL1        0.0654
     42 H           2.0000   -2.3060    0.0000 H       1  UNL1        0.2921
@<TRIPOS>BOND
     1    10     1    1
     2     1    16    1
     3     9     2    1
     4     2    32    1
     5    13     3    1
     6     3    33    1
     7    14     4    1
     8     4    34    1
     9     5    15    1
    10     5    35    1
    11     6    15    2
    12     7    16    2
    13     8    24    1
    14     8    42    1
    15     9    11    1
    16     9    12    1
    17     9    15    1
    18    10    11    1
    19    10    13    1
    20    10    25    1
    21    11    26    1
    22    11    27    1
    23    12    14    1
    24    12    28    1
    25    12    29    1
    26    13    14    1
    27    13    30    1
    28    14    31    1
    29    16    17    1
    30    17    18    2
    31    17    36    1
    32    18    19    1
    33    18    37    1
    34    19    20   ar
    35    19    21   ar
    36    20    22   ar
    37    20    38    1
    38    21    23   ar
    39    21    39    1
    40    22    24   ar
    41    22    40    1
    42    23    24   ar
    43    23    41    1
