@<TRIPOS>MOLECULE
IMPHY013774
 34 36 0 0 0
SMALL
GASTEIGER

@<TRIPOS>ATOM
      1 P           4.5981    0.5000    0.0000 P.3     1  UNL1       -0.0131
      2 C           4.5981   -0.5000    0.0000 C.ar    1  UNL1       -0.0147
      3 C           5.4641    1.0000    0.0000 C.ar    1  UNL1       -0.0147
      4 C           3.7320    1.0000    0.0000 C.ar    1  UNL1       -0.0147
      5 C           3.7320   -1.0000    0.0000 C.ar    1  UNL1       -0.0535
      6 C           6.3301    0.5000    0.0000 C.ar    1  UNL1       -0.0535
      7 C           3.7320    2.0000    0.0000 C.ar    1  UNL1       -0.0535
      8 C           5.4641   -1.0000    0.0000 C.ar    1  UNL1       -0.0535
      9 C           5.4641    2.0000    0.0000 C.ar    1  UNL1       -0.0535
     10 C           2.8660    0.5000    0.0000 C.ar    1  UNL1       -0.0535
     11 C           3.7320   -2.0000    0.0000 C.ar    1  UNL1       -0.0611
     12 C           7.1962    1.0000    0.0000 C.ar    1  UNL1       -0.0611
     13 C           2.8660    2.5000    0.0000 C.ar    1  UNL1       -0.0611
     14 C           5.4641   -2.0000    0.0000 C.ar    1  UNL1       -0.0611
     15 C           6.3301    2.5000    0.0000 C.ar    1  UNL1       -0.0611
     16 C           2.0000    1.0000    0.0000 C.ar    1  UNL1       -0.0611
     17 C           4.5981   -2.5000    0.0000 C.ar    1  UNL1       -0.0617
     18 C           7.1962    2.0000    0.0000 C.ar    1  UNL1       -0.0617
     19 C           2.0000    2.0000    0.0000 C.ar    1  UNL1       -0.0617
     20 H           3.1951   -0.6900    0.0000 H       1  UNL1        0.0624
     21 H           6.3301   -0.1200    0.0000 H       1  UNL1        0.0624
     22 H           4.2690    2.3100    0.0000 H       1  UNL1        0.0624
     23 H           6.0010   -0.6900    0.0000 H       1  UNL1        0.0624
     24 H           4.9272    2.3100    0.0000 H       1  UNL1        0.0624
     25 H           2.8660   -0.1200    0.0000 H       1  UNL1        0.0624
     26 H           3.1951   -2.3100    0.0000 H       1  UNL1        0.0618
     27 H           7.7331    0.6900    0.0000 H       1  UNL1        0.0618
     28 H           2.8660    3.1200    0.0000 H       1  UNL1        0.0618
     29 H           6.0010   -2.3100    0.0000 H       1  UNL1        0.0618
     30 H           6.3301    3.1200    0.0000 H       1  UNL1        0.0618
     31 H           1.4631    0.6900    0.0000 H       1  UNL1        0.0618
     32 H           4.5981   -3.1200    0.0000 H       1  UNL1        0.0618
     33 H           7.7331    2.3100    0.0000 H       1  UNL1        0.0618
     34 H           1.4631    2.3100    0.0000 H       1  UNL1        0.0618
@<TRIPOS>BOND
     1     1     2    1
     2     1     3    1
     3     1     4    1
     4     2     5   ar
     5     2     8   ar
     6     3     6   ar
     7     3     9   ar
     8     4     7   ar
     9     4    10   ar
    10     5    11   ar
    11     5    20    1
    12     6    12   ar
    13     6    21    1
    14     7    13   ar
    15     7    22    1
    16     8    14   ar
    17     8    23    1
    18     9    15   ar
    19     9    24    1
    20    10    16   ar
    21    10    25    1
    22    11    17   ar
    23    11    26    1
    24    12    18   ar
    25    12    27    1
    26    13    19   ar
    27    13    28    1
    28    14    17   ar
    29    14    29    1
    30    15    18   ar
    31    15    30    1
    32    16    19   ar
    33    16    31    1
    34    17    32    1
    35    18    33    1
    36    19    34    1
