@<TRIPOS>MOLECULE
IMPHY015665
 22 21 0 0 0
SMALL
GASTEIGER

@<TRIPOS>ATOM
      1 O           3.7320    0.4400    0.0000 O.3     1  UNL1       -0.4618
      2 O           4.5981   -1.0600    0.0000 O.2     1  UNL1       -0.2456
      3 C           2.8660   -0.0600    0.0000 C.3     1  UNL1        0.0900
      4 C           2.0000    0.4400    0.0000 C.3     1  UNL1       -0.0306
      5 C           4.5981   -0.0600    0.0000 C.2     1  UNL1        0.3319
      6 C           5.4641    0.4400    0.0000 C.2     1  UNL1        0.0225
      7 C           6.3301   -0.0600    0.0000 C.2     1  UNL1       -0.0553
      8 C           7.1962    0.4400    0.0000 C.2     1  UNL1       -0.0657
      9 C           8.0622   -0.0600    0.0000 C.2     1  UNL1       -0.0871
     10 C           8.9282    0.4400    0.0000 C.3     1  UNL1       -0.0465
     11 H           2.4675   -0.5349    0.0000 H       1  UNL1        0.0695
     12 H           3.2646   -0.5349    0.0000 H       1  UNL1        0.0695
     13 H           2.3100    0.9769    0.0000 H       1  UNL1        0.0262
     14 H           1.4631    0.7500    0.0000 H       1  UNL1        0.0262
     15 H           1.6900   -0.0969    0.0000 H       1  UNL1        0.0262
     16 H           5.4641    1.0600    0.0000 H       1  UNL1        0.0689
     17 H           6.3301   -0.6800    0.0000 H       1  UNL1        0.0620
     18 H           7.1962    1.0600    0.0000 H       1  UNL1        0.0614
     19 H           8.0622   -0.6800    0.0000 H       1  UNL1        0.0569
     20 H           9.2382   -0.0969    0.0000 H       1  UNL1        0.0272
     21 H           9.4651    0.7500    0.0000 H       1  UNL1        0.0272
     22 H           8.6182    0.9769    0.0000 H       1  UNL1        0.0272
@<TRIPOS>BOND
     1     1     3    1
     2     1     5    1
     3     2     5    2
     4     3     4    1
     5     3    11    1
     6     3    12    1
     7     4    13    1
     8     4    14    1
     9     4    15    1
    10     5     6    1
    11     6     7    2
    12     6    16    1
    13     7     8    1
    14     7    17    1
    15     8     9    2
    16     8    18    1
    17     9    10    1
    18     9    19    1
    19    10    20    1
    20    10    21    1
    21    10    22    1
