@<TRIPOS>MOLECULE
IMPHY000315
 24 25 0 0 0
SMALL
GASTEIGER

@<TRIPOS>ATOM
      1 O           4.0032    1.8649    0.0000 O.3     1  UNL1       -0.4276
      2 O           2.7431    0.6048    0.0000 O.3     1  UNL1       -0.3412
      3 O           5.5910    2.6739    0.0000 O.2     1  UNL1       -0.2455
      4 C           4.5032    0.3261    0.0000 C.2     1  UNL1        0.0341
      5 C           3.6942    0.9139    0.0000 C.3     1  UNL1        0.2323
      6 C           4.5032   -0.6739    0.0000 C.ar    1  UNL1       -0.0157
      7 C           5.3122    0.9139    0.0000 C.2     1  UNL1        0.0322
      8 C           5.0032    1.8649    0.0000 C.2     1  UNL1        0.3348
      9 C           3.6372   -1.1739    0.0000 C.ar    1  UNL1       -0.0541
     10 C           5.3692   -1.1739    0.0000 C.ar    1  UNL1       -0.0541
     11 C           3.6372   -2.1739    0.0000 C.ar    1  UNL1       -0.0612
     12 C           5.3692   -2.1739    0.0000 C.ar    1  UNL1       -0.0612
     13 C           4.5032   -2.6739    0.0000 C.ar    1  UNL1       -0.0617
     14 C           2.0000    1.2740    0.0000 C.3     1  UNL1        0.0408
     15 H           3.0932    1.5149    0.0000 H       1  UNL1        0.1113
     16 H           5.9019    0.7223    0.0000 H       1  UNL1        0.0694
     17 H           3.1003   -0.8639    0.0000 H       1  UNL1        0.0624
     18 H           5.9062   -0.8639    0.0000 H       1  UNL1        0.0624
     19 H           3.1003   -2.4839    0.0000 H       1  UNL1        0.0618
     20 H           5.9062   -2.4839    0.0000 H       1  UNL1        0.0618
     21 H           4.5032   -3.2939    0.0000 H       1  UNL1        0.0618
     22 H           2.4149    1.7347    0.0000 H       1  UNL1        0.0525
     23 H           1.5392    1.6888    0.0000 H       1  UNL1        0.0525
     24 H           1.5851    0.8132    0.0000 H       1  UNL1        0.0525
@<TRIPOS>BOND
     1     1     5    1
     2     1     8    1
     3     2     5    1
     4     2    14    1
     5     3     8    2
     6     4     5    1
     7     4     6    1
     8     4     7    2
     9     5    15    1
    10     6     9   ar
    11     6    10   ar
    12     7     8    1
    13     7    16    1
    14     9    11   ar
    15     9    17    1
    16    10    12   ar
    17    10    18    1
    18    11    13   ar
    19    11    19    1
    20    12    13   ar
    21    12    20    1
    22    13    21    1
    23    14    22    1
    24    14    23    1
    25    14    24    1
