@<TRIPOS>MOLECULE
IMPHY007896
 20 20 0 0 0
SMALL
GASTEIGER

@<TRIPOS>ATOM
      1 O           2.5369    1.4050    0.0000 O.2     1  UNL1       -0.5073
      2 O           4.2690    2.4050    0.0000 O.2     1  UNL1       -0.5012
      3 O           6.0010    1.4050    0.0000 O.2     1  UNL1       -0.2887
      4 O           3.4030   -2.0950    0.0000 O.3     1  UNL1       -0.4804
      5 O           5.1350   -2.0950    0.0000 O.2     1  UNL1       -0.2507
      6 C           4.2690   -0.5950    0.0000 C.3     1  UNL1        0.0702
      7 C           3.4030   -0.0950    0.0000 C.3     1  UNL1        0.0217
      8 C           5.1350   -0.0950    0.0000 C.3     1  UNL1        0.0269
      9 C           3.4030    0.9050    0.0000 C.2     1  UNL1        0.1395
     10 C           5.1350    0.9050    0.0000 C.2     1  UNL1        0.2012
     11 C           4.2690    1.4050    0.0000 C.2     1  UNL1        0.1972
     12 C           4.2690   -1.5950    0.0000 C.2     1  UNL1        0.3087
     13 H           4.8059   -0.9050    0.0000 H       1  UNL1        0.0422
     14 H           2.7924    0.0127    0.0000 H       1  UNL1        0.0352
     15 H           3.1909   -0.6776    0.0000 H       1  UNL1        0.0352
     16 H           5.3471   -0.6776    0.0000 H       1  UNL1        0.0354
     17 H           5.7456    0.0127    0.0000 H       1  UNL1        0.0354
     18 H           2.0000    1.0950    0.0000 H       1  UNL1        0.2918
     19 H           4.8059    2.7150    0.0000 H       1  UNL1        0.2924
     20 H           3.4030   -2.7150    0.0000 H       1  UNL1        0.2951
@<TRIPOS>BOND
     1     1     9    1
     2     1    18    1
     3     2    11    1
     4     2    19    1
     5     3    10    2
     6     4    12    1
     7     4    20    1
     8     5    12    2
     9     6     7    1
    10     6     8    1
    11     6    12    1
    12     6    13    1
    13     7     9    1
    14     7    14    1
    15     7    15    1
    16     8    10    1
    17     8    16    1
    18     8    17    1
    19     9    11    2
    20    10    11    1
