@<TRIPOS>MOLECULE
IMPHY004674
 40 39 0 0 0
SMALL
GASTEIGER

@<TRIPOS>ATOM
      1 O           3.7320   -4.5000    0.0000 O.2     1  UNL1       -0.2781
      2 C          11.5263    2.0000    0.0000 C.3     1  UNL1       -0.0531
      3 C          10.6603    1.5000    0.0000 C.3     1  UNL1       -0.0528
      4 C          11.5263    3.0000    0.0000 C.3     1  UNL1       -0.0533
      5 C          10.6603    0.5000    0.0000 C.3     1  UNL1       -0.0496
      6 C          12.3923    3.5000    0.0000 C.3     1  UNL1       -0.0559
      7 C           9.7942    0.0000    0.0000 C.3     1  UNL1       -0.0347
      8 C          12.3923    4.5000    0.0000 C.3     1  UNL1       -0.0653
      9 C           9.7942   -1.0000    0.0000 C.2     1  UNL1       -0.0870
     10 C           8.9282   -1.5000    0.0000 C.2     1  UNL1       -0.0762
     11 C           8.0622   -1.0000    0.0000 C.3     1  UNL1        0.0282
     12 C           7.1962   -1.5000    0.0000 C.1     1  UNL1       -0.0843
     13 C           6.3301   -2.0000    0.0000 C.1     1  UNL1       -0.0141
     14 C           5.4641   -2.5000    0.0000 C.1     1  UNL1       -0.0064
     15 C           4.5981   -3.0000    0.0000 C.1     1  UNL1       -0.0102
     16 C           3.7320   -3.5000    0.0000 C.2     1  UNL1        0.2292
     17 C           2.8660   -3.0000    0.0000 C.2     1  UNL1       -0.0132
     18 C           2.0000   -3.5000    0.0000 C.2     1  UNL1       -0.0944
     19 H          11.7383    1.4174    0.0000 H       1  UNL1        0.0265
     20 H          12.1369    2.1077    0.0000 H       1  UNL1        0.0265
     21 H          10.4482    2.0826    0.0000 H       1  UNL1        0.0265
     22 H          10.0497    1.3923    0.0000 H       1  UNL1        0.0265
     23 H          11.3142    3.5826    0.0000 H       1  UNL1        0.0265
     24 H          10.9157    2.8923    0.0000 H       1  UNL1        0.0265
     25 H          10.8723   -0.0826    0.0000 H       1  UNL1        0.0268
     26 H          11.2708    0.6077    0.0000 H       1  UNL1        0.0268
     27 H          12.6044    2.9174    0.0000 H       1  UNL1        0.0263
     28 H          13.0029    3.6077    0.0000 H       1  UNL1        0.0263
     29 H           9.5822    0.5826    0.0000 H       1  UNL1        0.0307
     30 H           9.1836   -0.1077    0.0000 H       1  UNL1        0.0307
     31 H          13.0123    4.5000    0.0000 H       1  UNL1        0.0230
     32 H          12.3923    5.1200    0.0000 H       1  UNL1        0.0230
     33 H          11.7723    4.5000    0.0000 H       1  UNL1        0.0230
     34 H          10.3312   -1.3100    0.0000 H       1  UNL1        0.0569
     35 H           8.9282   -2.1200    0.0000 H       1  UNL1        0.0578
     36 H           8.4607   -0.5251    0.0000 H       1  UNL1        0.0441
     37 H           7.6636   -0.5251    0.0000 H       1  UNL1        0.0441
     38 H           2.8660   -2.3800    0.0000 H       1  UNL1        0.0657
     39 H           1.4631   -3.1900    0.0000 H       1  UNL1        0.0536
     40 H           2.0000   -4.1200    0.0000 H       1  UNL1        0.0536
@<TRIPOS>BOND
     1     1    16    2
     2     2     3    1
     3     2     4    1
     4     2    19    1
     5     2    20    1
     6     3     5    1
     7     3    21    1
     8     3    22    1
     9     4     6    1
    10     4    23    1
    11     4    24    1
    12     5     7    1
    13     5    25    1
    14     5    26    1
    15     6     8    1
    16     6    27    1
    17     6    28    1
    18     7     9    1
    19     7    29    1
    20     7    30    1
    21     8    31    1
    22     8    32    1
    23     8    33    1
    24     9    10    2
    25     9    34    1
    26    10    11    1
    27    10    35    1
    28    11    12    1
    29    11    36    1
    30    11    37    1
    31    12    13    3
    32    13    14    1
    33    14    15    3
    34    15    16    1
    35    16    17    1
    36    17    18    2
    37    17    38    1
    38    18    39    1
    39    18    40    1
