@<TRIPOS>MOLECULE
IMPHY017324
 26 26 0 0 0
SMALL
GASTEIGER

@<TRIPOS>ATOM
      1 C           2.8660   -0.9050    0.0000 C.2     1  UNL1       -0.0702
      2 C           3.7320   -0.4050    0.0000 C.3     1  UNL1       -0.0278
      3 C           2.0000   -0.4050    0.0000 C.3     1  UNL1       -0.0278
      4 C           3.7320    0.5950    0.0000 C.3     1  UNL1       -0.0283
      5 C           2.0000    0.5950    0.0000 C.3     1  UNL1       -0.0283
      6 C           2.8660    1.0950    0.0000 C.2     1  UNL1       -0.0760
      7 C           2.8660   -1.9050    0.0000 C.2     1  UNL1       -0.0764
      8 C           2.0000   -2.4050    0.0000 C.3     1  UNL1       -0.0438
      9 C           3.7320   -2.4050    0.0000 C.3     1  UNL1       -0.0438
     10 C           2.8660    2.0950    0.0000 C.2     1  UNL1       -0.0994
     11 H           3.9441   -0.9876    0.0000 H       1  UNL1        0.0313
     12 H           4.3426   -0.2973    0.0000 H       1  UNL1        0.0313
     13 H           1.3894   -0.2973    0.0000 H       1  UNL1        0.0313
     14 H           1.7880   -0.9876    0.0000 H       1  UNL1        0.0313
     15 H           4.3426    0.4873    0.0000 H       1  UNL1        0.0313
     16 H           3.9441    1.1776    0.0000 H       1  UNL1        0.0313
     17 H           1.7880    1.1776    0.0000 H       1  UNL1        0.0313
     18 H           1.3894    0.4873    0.0000 H       1  UNL1        0.0313
     19 H           1.6900   -1.8681    0.0000 H       1  UNL1        0.0274
     20 H           1.4631   -2.7150    0.0000 H       1  UNL1        0.0274
     21 H           2.3100   -2.9419    0.0000 H       1  UNL1        0.0274
     22 H           3.4220   -2.9419    0.0000 H       1  UNL1        0.0274
     23 H           4.2690   -2.7150    0.0000 H       1  UNL1        0.0274
     24 H           4.0420   -1.8681    0.0000 H       1  UNL1        0.0274
     25 H           3.4030    2.4050    0.0000 H       1  UNL1        0.0534
     26 H           2.3291    2.4050    0.0000 H       1  UNL1        0.0534
@<TRIPOS>BOND
     1     1     2    1
     2     1     3    1
     3     1     7    2
     4     2     4    1
     5     2    11    1
     6     2    12    1
     7     3     5    1
     8     3    13    1
     9     3    14    1
    10     4     6    1
    11     4    15    1
    12     4    16    1
    13     5     6    1
    14     5    17    1
    15     5    18    1
    16     6    10    2
    17     7     8    1
    18     7     9    1
    19     8    19    1
    20     8    20    1
    21     8    21    1
    22     9    22    1
    23     9    23    1
    24     9    24    1
    25    10    25    1
    26    10    26    1
