@<TRIPOS>MOLECULE
IMPHY013937
 47 48 0 0 0
SMALL
GASTEIGER

@<TRIPOS>ATOM
      1 O           4.5981    0.0000    0.0000 O.3     1  UNL1       -0.4554
      2 C           2.8660   -1.0000    0.0000 C.3     1  UNL1       -0.0180
      3 C           4.5981    2.0000    0.0000 C.3     1  UNL1       -0.0180
      4 C           3.7320   -1.5000    0.0000 C.ar    1  UNL1       -0.0025
      5 C           5.4641    1.5000    0.0000 C.ar    1  UNL1       -0.0025
      6 C           4.5981   -1.0000    0.0000 C.ar    1  UNL1        0.1321
      7 C           5.4641    0.5000    0.0000 C.ar    1  UNL1        0.1321
      8 C           2.0000   -1.5000    0.0000 C.3     1  UNL1       -0.0585
      9 C           2.8660    0.0000    0.0000 C.3     1  UNL1       -0.0585
     10 C           4.5981    3.0000    0.0000 C.3     1  UNL1       -0.0585
     11 C           3.7320    1.5000    0.0000 C.3     1  UNL1       -0.0585
     12 C           3.7320   -2.5000    0.0000 C.ar    1  UNL1       -0.0546
     13 C           6.3301    2.0000    0.0000 C.ar    1  UNL1       -0.0546
     14 C           5.4641   -1.5000    0.0000 C.ar    1  UNL1       -0.0161
     15 C           6.3301    0.0000    0.0000 C.ar    1  UNL1       -0.0161
     16 C           5.4641   -2.5000    0.0000 C.ar    1  UNL1       -0.0470
     17 C           7.1962    0.5000    0.0000 C.ar    1  UNL1       -0.0470
     18 C           4.5981   -3.0000    0.0000 C.ar    1  UNL1       -0.0583
     19 C           7.1962    1.5000    0.0000 C.ar    1  UNL1       -0.0583
     20 C           6.3301   -3.0000    0.0000 C.3     1  UNL1       -0.0396
     21 C           8.0622    0.0000    0.0000 C.3     1  UNL1       -0.0396
     22 H           2.8660   -1.6200    0.0000 H       1  UNL1        0.0345
     23 H           4.5981    1.3800    0.0000 H       1  UNL1        0.0345
     24 H           1.6900   -0.9631    0.0000 H       1  UNL1        0.0235
     25 H           1.4631   -1.8100    0.0000 H       1  UNL1        0.0235
     26 H           2.3100   -2.0369    0.0000 H       1  UNL1        0.0235
     27 H           3.4860    0.0000    0.0000 H       1  UNL1        0.0235
     28 H           2.8660    0.6200    0.0000 H       1  UNL1        0.0235
     29 H           2.2460    0.0000    0.0000 H       1  UNL1        0.0235
     30 H           5.2181    3.0000    0.0000 H       1  UNL1        0.0235
     31 H           4.5981    3.6200    0.0000 H       1  UNL1        0.0235
     32 H           3.9781    3.0000    0.0000 H       1  UNL1        0.0235
     33 H           3.4220    2.0369    0.0000 H       1  UNL1        0.0235
     34 H           3.1951    1.1900    0.0000 H       1  UNL1        0.0235
     35 H           4.0420    0.9631    0.0000 H       1  UNL1        0.0235
     36 H           3.1951   -2.8100    0.0000 H       1  UNL1        0.0622
     37 H           6.3301    2.6200    0.0000 H       1  UNL1        0.0622
     38 H           6.0010   -1.1900    0.0000 H       1  UNL1        0.0657
     39 H           6.3301   -0.6200    0.0000 H       1  UNL1        0.0657
     40 H           4.5981   -3.6200    0.0000 H       1  UNL1        0.0620
     41 H           7.7331    1.8100    0.0000 H       1  UNL1        0.0620
     42 H           6.0201   -3.5369    0.0000 H       1  UNL1        0.0278
     43 H           6.8671   -3.3100    0.0000 H       1  UNL1        0.0278
     44 H           6.6401   -2.4631    0.0000 H       1  UNL1        0.0278
     45 H           7.7522   -0.5369    0.0000 H       1  UNL1        0.0278
     46 H           8.5991   -0.3100    0.0000 H       1  UNL1        0.0278
     47 H           8.3722    0.5369    0.0000 H       1  UNL1        0.0278
@<TRIPOS>BOND
     1     1     6    1
     2     1     7    1
     3     2     4    1
     4     2     8    1
     5     2     9    1
     6     2    22    1
     7     3     5    1
     8     3    10    1
     9     3    11    1
    10     3    23    1
    11     4     6   ar
    12     4    12   ar
    13     5     7   ar
    14     5    13   ar
    15     6    14   ar
    16     7    15   ar
    17     8    24    1
    18     8    25    1
    19     8    26    1
    20     9    27    1
    21     9    28    1
    22     9    29    1
    23    10    30    1
    24    10    31    1
    25    10    32    1
    26    11    33    1
    27    11    34    1
    28    11    35    1
    29    12    18   ar
    30    12    36    1
    31    13    19   ar
    32    13    37    1
    33    14    16   ar
    34    14    38    1
    35    15    17   ar
    36    15    39    1
    37    16    18   ar
    38    16    20    1
    39    17    19   ar
    40    17    21    1
    41    18    40    1
    42    19    41    1
    43    20    42    1
    44    20    43    1
    45    20    44    1
    46    21    45    1
    47    21    46    1
    48    21    47    1
