@<TRIPOS>MOLECULE
IMPHY015899
 27 27 0 0 0
SMALL
GASTEIGER

@<TRIPOS>ATOM
      1 O           2.5369   -1.2500    0.0000 O.3     1  UNL1       -0.3872
      2 C           4.2690    0.7500    0.0000 C.2     1  UNL1       -0.0678
      3 C           3.4030    0.2500    0.0000 C.3     1  UNL1       -0.0015
      4 C           4.2690    1.7500    0.0000 C.3     1  UNL1       -0.0255
      5 C           3.4030   -0.7500    0.0000 C.3     1  UNL1        0.0800
      6 C           5.1350   -0.7500    0.0000 C.3     1  UNL1       -0.0111
      7 C           4.2690   -1.2500    0.0000 C.2     1  UNL1       -0.0445
      8 C           5.1350    0.2500    0.0000 C.2     1  UNL1       -0.0804
      9 C           5.1350    2.2500    0.0000 C.3     1  UNL1       -0.0590
     10 C           3.4030    2.2500    0.0000 C.3     1  UNL1       -0.0590
     11 C           4.2690   -2.2500    0.0000 C.2     1  UNL1       -0.0967
     12 H           3.1909    0.8326    0.0000 H       1  UNL1        0.0338
     13 H           2.7924    0.1423    0.0000 H       1  UNL1        0.0338
     14 H           4.2690    2.3700    0.0000 H       1  UNL1        0.0340
     15 H           3.4030   -1.3700    0.0000 H       1  UNL1        0.0643
     16 H           5.3471   -1.3326    0.0000 H       1  UNL1        0.0353
     17 H           5.7456   -0.6423    0.0000 H       1  UNL1        0.0353
     18 H           5.6720    0.5600    0.0000 H       1  UNL1        0.0575
     19 H           5.4450    1.7131    0.0000 H       1  UNL1        0.0235
     20 H           5.6720    2.5600    0.0000 H       1  UNL1        0.0235
     21 H           4.8250    2.7869    0.0000 H       1  UNL1        0.0235
     22 H           3.7130    2.7869    0.0000 H       1  UNL1        0.0235
     23 H           2.8660    2.5600    0.0000 H       1  UNL1        0.0235
     24 H           3.0930    1.7131    0.0000 H       1  UNL1        0.0235
     25 H           3.7320   -2.5600    0.0000 H       1  UNL1        0.0535
     26 H           4.8059   -2.5600    0.0000 H       1  UNL1        0.0535
     27 H           2.0000   -0.9400    0.0000 H       1  UNL1        0.2102
@<TRIPOS>BOND
     1     5     1    1
     2     1    27    1
     3     2     3    1
     4     2     4    1
     5     2     8    2
     6     3     5    1
     7     3    12    1
     8     3    13    1
     9     4     9    1
    10     4    10    1
    11     4    14    1
    12     5     7    1
    13     5    15    1
    14     6     7    1
    15     6     8    1
    16     6    16    1
    17     6    17    1
    18     7    11    2
    19     8    18    1
    20     9    19    1
    21     9    20    1
    22     9    21    1
    23    10    22    1
    24    10    23    1
    25    10    24    1
    26    11    25    1
    27    11    26    1
