@<TRIPOS>MOLECULE
IMPHY008606
 23 23 0 0 0
SMALL
GASTEIGER

@<TRIPOS>ATOM
      1 O           2.5369    0.4050    0.0000 O.3     1  UNL1       -0.5058
      2 O           5.1350    1.9050    0.0000 O.3     1  UNL1       -0.4644
      3 O           4.2690   -2.5950    0.0000 O.3     1  UNL1       -0.5066
      4 O           3.4030    1.9050    0.0000 O.2     1  UNL1       -0.2448
      5 C           5.1350   -0.0950    0.0000 C.ar    1  UNL1       -0.0295
      6 C           4.2690    0.4050    0.0000 C.ar    1  UNL1        0.1034
      7 C           3.4030   -0.0950    0.0000 C.ar    1  UNL1        0.1345
      8 C           5.1350   -1.0950    0.0000 C.ar    1  UNL1       -0.0163
      9 C           4.2690   -1.5950    0.0000 C.ar    1  UNL1        0.1206
     10 C           3.4030   -1.0950    0.0000 C.ar    1  UNL1        0.0221
     11 C           6.0010    0.4050    0.0000 C.3     1  UNL1       -0.0387
     12 C           4.2690    1.4050    0.0000 C.2     1  UNL1        0.3427
     13 C           5.1350    2.9050    0.0000 C.3     1  UNL1        0.0820
     14 H           5.6720   -1.4050    0.0000 H       1  UNL1        0.0657
     15 H           2.8660   -1.4050    0.0000 H       1  UNL1        0.0691
     16 H           6.3110   -0.1319    0.0000 H       1  UNL1        0.0278
     17 H           6.5380    0.7150    0.0000 H       1  UNL1        0.0278
     18 H           5.6910    0.9419    0.0000 H       1  UNL1        0.0278
     19 H           2.0000    0.0950    0.0000 H       1  UNL1        0.2922
     20 H           4.8059   -2.9050    0.0000 H       1  UNL1        0.2921
     21 H           5.7550    2.9050    0.0000 H       1  UNL1        0.0661
     22 H           5.1350    3.5250    0.0000 H       1  UNL1        0.0661
     23 H           4.5150    2.9050    0.0000 H       1  UNL1        0.0661
@<TRIPOS>BOND
     1     1     7    1
     2     1    19    1
     3     2    12    1
     4     2    13    1
     5     3     9    1
     6     3    20    1
     7     4    12    2
     8     5     6   ar
     9     5     8   ar
    10     5    11    1
    11     6     7   ar
    12     6    12    1
    13     7    10   ar
    14     8     9   ar
    15     8    14    1
    16     9    10   ar
    17    10    15    1
    18    11    16    1
    19    11    17    1
    20    11    18    1
    21    13    21    1
    22    13    22    1
    23    13    23    1
