@<TRIPOS>MOLECULE
IMPHY000101
 46 47 0 0 0
SMALL
GASTEIGER

@<TRIPOS>ATOM
      1 O           6.0070   -0.8972    0.0000 O.3     1  UNL1       -0.4535
      2 O           6.8490    0.5612    0.0000 O.2     1  UNL1       -0.2932
      3 O           7.7127   -0.5964    0.0000 O.2     1  UNL1       -0.2511
      4 C           4.0835   -1.4221    0.0000 C.3     1  UNL1       -0.0272
      5 C           4.4245   -0.4732    0.0000 C.3     1  UNL1        0.0148
      6 C           3.4848   -0.1312    0.0000 C.3     1  UNL1       -0.0126
      7 C           3.1361   -1.0772    0.0000 C.3     1  UNL1       -0.0405
      8 C           5.3642   -0.1312    0.0000 C.3     1  UNL1        0.1645
      9 C           3.7434   -2.3625    0.0000 C.3     1  UNL1       -0.0594
     10 C           5.0239   -1.7622    0.0000 C.3     1  UNL1       -0.0594
     11 C           2.9848    0.7349    0.0000 C.2     1  UNL1       -0.0731
     12 C           5.8642    0.7349    0.0000 C.2     1  UNL1        0.1766
     13 C           3.1585    1.7197    0.0000 C.3     1  UNL1       -0.0317
     14 C           5.6905    1.7197    0.0000 C.3     1  UNL1        0.0184
     15 C           3.9245    2.3625    0.0000 C.3     1  UNL1       -0.0487
     16 C           4.9245    2.3625    0.0000 C.3     1  UNL1       -0.0434
     17 C           2.0000    0.5612    0.0000 C.2     1  UNL1       -0.0992
     18 C           6.5566    2.2197    0.0000 C.3     1  UNL1       -0.0556
     19 C           6.9467   -1.2392    0.0000 C.2     1  UNL1        0.3046
     20 C           7.1203   -2.2240    0.0000 C.3     1  UNL1        0.0333
     21 H           5.0268   -1.0730    0.0000 H       1  UNL1        0.0352
     22 H           2.6379   -0.2035    0.0000 H       1  UNL1        0.0350
     23 H           2.5540   -0.8636    0.0000 H       1  UNL1        0.0276
     24 H           2.9232   -1.6595    0.0000 H       1  UNL1        0.0276
     25 H           5.9818   -0.0771    0.0000 H       1  UNL1        0.0818
     26 H           3.1604   -2.1516    0.0000 H       1  UNL1        0.0235
     27 H           3.5326   -2.9455    0.0000 H       1  UNL1        0.0235
     28 H           4.3265   -2.5733    0.0000 H       1  UNL1        0.0235
     29 H           4.8131   -2.3452    0.0000 H       1  UNL1        0.0235
     30 H           5.6070   -1.9730    0.0000 H       1  UNL1        0.0235
     31 H           5.2348   -1.1791    0.0000 H       1  UNL1        0.0235
     32 H           2.9129    2.2890    0.0000 H       1  UNL1        0.0310
     33 H           2.5426    1.6477    0.0000 H       1  UNL1        0.0310
     34 H           5.7446    2.3373    0.0000 H       1  UNL1        0.0376
     35 H           4.1023    2.9564    0.0000 H       1  UNL1        0.0268
     36 H           3.4065    2.7032    0.0000 H       1  UNL1        0.0268
     37 H           5.4425    2.7032    0.0000 H       1  UNL1        0.0272
     38 H           4.7467    2.9564    0.0000 H       1  UNL1        0.0272
     39 H           1.6015    1.0362    0.0000 H       1  UNL1        0.0534
     40 H           1.7880   -0.0214    0.0000 H       1  UNL1        0.0534
     41 H           6.8666    1.6827    0.0000 H       1  UNL1        0.0236
     42 H           7.0935    2.5297    0.0000 H       1  UNL1        0.0236
     43 H           6.2466    2.7566    0.0000 H       1  UNL1        0.0236
     44 H           6.5097   -2.3317    0.0000 H       1  UNL1        0.0342
     45 H           7.2280   -2.8346    0.0000 H       1  UNL1        0.0342
     46 H           7.7309   -2.1164    0.0000 H       1  UNL1        0.0342
@<TRIPOS>BOND
     1     8     1    1
     2     1    19    1
     3     2    12    2
     4     3    19    2
     5     4     5    1
     6     4     7    1
     7     4     9    1
     8     4    10    1
     9     5     6    1
    10     5     8    1
    11     5    21    1
    12     6     7    1
    13     6    11    1
    14     6    22    1
    15     7    23    1
    16     7    24    1
    17     8    12    1
    18     8    25    1
    19     9    26    1
    20     9    27    1
    21     9    28    1
    22    10    29    1
    23    10    30    1
    24    10    31    1
    25    11    13    1
    26    11    17    2
    27    12    14    1
    28    13    15    1
    29    13    32    1
    30    13    33    1
    31    14    16    1
    32    14    18    1
    33    14    34    1
    34    15    16    1
    35    15    35    1
    36    15    36    1
    37    16    37    1
    38    16    38    1
    39    17    39    1
    40    17    40    1
    41    18    41    1
    42    18    42    1
    43    18    43    1
    44    19    20    1
    45    20    44    1
    46    20    45    1
    47    20    46    1
