@<TRIPOS>MOLECULE
IMPHY000012
 28 29 0 0 0
SMALL
GASTEIGER

@<TRIPOS>ATOM
      1 O           2.5369   -0.1550    0.0000 O.3     1  UNL1       -0.5058
      2 O           6.0010   -0.1550    0.0000 O.3     1  UNL1       -0.5058
      3 O           3.4030    1.3450    0.0000 O.2     1  UNL1       -0.2864
      4 O           4.2690   -3.1550    0.0000 O.3     1  UNL1       -0.5065
      5 O           7.7331    2.8450    0.0000 O.3     1  UNL1       -0.5068
      6 C           4.2690   -0.1550    0.0000 C.ar    1  UNL1        0.1051
      7 C           5.1350    1.3450    0.0000 C.ar    1  UNL1        0.0227
      8 C           4.2690    0.8450    0.0000 C.2     1  UNL1        0.2002
      9 C           3.4030   -0.6550    0.0000 C.ar    1  UNL1        0.1347
     10 C           5.1350   -0.6550    0.0000 C.ar    1  UNL1        0.1347
     11 C           3.4030   -1.6550    0.0000 C.ar    1  UNL1        0.0223
     12 C           5.1350   -1.6550    0.0000 C.ar    1  UNL1        0.0223
     13 C           6.0010    0.8450    0.0000 C.ar    1  UNL1       -0.0475
     14 C           5.1350    2.3450    0.0000 C.ar    1  UNL1       -0.0475
     15 C           4.2690   -2.1550    0.0000 C.ar    1  UNL1        0.1238
     16 C           6.8671    1.3450    0.0000 C.ar    1  UNL1       -0.0195
     17 C           6.0010    2.8450    0.0000 C.ar    1  UNL1       -0.0195
     18 C           6.8671    2.3450    0.0000 C.ar    1  UNL1        0.1169
     19 H           2.8660   -1.9650    0.0000 H       1  UNL1        0.0691
     20 H           5.6720   -1.9650    0.0000 H       1  UNL1        0.0691
     21 H           6.0010    0.2250    0.0000 H       1  UNL1        0.0626
     22 H           4.5981    2.6550    0.0000 H       1  UNL1        0.0626
     23 H           7.4040    1.0350    0.0000 H       1  UNL1        0.0654
     24 H           6.0010    3.4650    0.0000 H       1  UNL1        0.0654
     25 H           2.0000   -0.4650    0.0000 H       1  UNL1        0.2922
     26 H           6.5380   -0.4650    0.0000 H       1  UNL1        0.2922
     27 H           3.7320   -3.4650    0.0000 H       1  UNL1        0.2921
     28 H           7.7331    3.4650    0.0000 H       1  UNL1        0.2921
@<TRIPOS>BOND
     1     1     9    1
     2     1    25    1
     3     2    10    1
     4     2    26    1
     5     3     8    2
     6     4    15    1
     7     4    27    1
     8     5    18    1
     9     5    28    1
    10     6     8    1
    11     6     9   ar
    12     6    10   ar
    13     7     8    1
    14     7    13   ar
    15     7    14   ar
    16     9    11   ar
    17    10    12   ar
    18    11    15   ar
    19    11    19    1
    20    12    15   ar
    21    12    20    1
    22    13    16   ar
    23    13    21    1
    24    14    17   ar
    25    14    22    1
    26    16    18   ar
    27    16    23    1
    28    17    18   ar
    29    17    24    1
