@<TRIPOS>MOLECULE
IMPHY017157
 29 28 0 0 0
SMALL
GASTEIGER

@<TRIPOS>ATOM
      1 C           3.7320    0.2500    0.0000 C.3     1  UNL1       -0.0441
      2 C           4.5981    0.7500    0.0000 C.3     1  UNL1       -0.0505
      3 C           5.4641    0.2500    0.0000 C.3     1  UNL1       -0.0528
      4 C           2.8660    0.7500    0.0000 C.3     1  UNL1       -0.0533
      5 C           6.3301    0.7500    0.0000 C.3     1  UNL1       -0.0533
      6 C           3.7320   -0.7500    0.0000 C.3     1  UNL1       -0.0624
      7 C           7.1962    0.2500    0.0000 C.3     1  UNL1       -0.0559
      8 C           2.0000    0.2500    0.0000 C.3     1  UNL1       -0.0650
      9 C           8.0622    0.7500    0.0000 C.3     1  UNL1       -0.0653
     10 H           4.2690   -0.0600    0.0000 H       1  UNL1        0.0298
     11 H           4.9966    1.2250    0.0000 H       1  UNL1        0.0268
     12 H           4.1996    1.2250    0.0000 H       1  UNL1        0.0268
     13 H           5.0656   -0.2249    0.0000 H       1  UNL1        0.0265
     14 H           5.8626   -0.2249    0.0000 H       1  UNL1        0.0265
     15 H           3.2646    1.2250    0.0000 H       1  UNL1        0.0265
     16 H           2.4675    1.2250    0.0000 H       1  UNL1        0.0265
     17 H           6.7287    1.2250    0.0000 H       1  UNL1        0.0265
     18 H           5.9316    1.2250    0.0000 H       1  UNL1        0.0265
     19 H           3.1120   -0.7500    0.0000 H       1  UNL1        0.0232
     20 H           3.7320   -1.3700    0.0000 H       1  UNL1        0.0232
     21 H           4.3520   -0.7500    0.0000 H       1  UNL1        0.0232
     22 H           6.7976   -0.2249    0.0000 H       1  UNL1        0.0263
     23 H           7.5947   -0.2249    0.0000 H       1  UNL1        0.0263
     24 H           1.6900    0.7869    0.0000 H       1  UNL1        0.0230
     25 H           1.4631   -0.0600    0.0000 H       1  UNL1        0.0230
     26 H           2.3100   -0.2869    0.0000 H       1  UNL1        0.0230
     27 H           8.3722    0.2131    0.0000 H       1  UNL1        0.0230
     28 H           8.5991    1.0600    0.0000 H       1  UNL1        0.0230
     29 H           7.7522    1.2869    0.0000 H       1  UNL1        0.0230
@<TRIPOS>BOND
     1     1     2    1
     2     1     4    1
     3     1     6    1
     4     1    10    1
     5     2     3    1
     6     2    11    1
     7     2    12    1
     8     3     5    1
     9     3    13    1
    10     3    14    1
    11     4     8    1
    12     4    15    1
    13     4    16    1
    14     5     7    1
    15     5    17    1
    16     5    18    1
    17     6    19    1
    18     6    20    1
    19     6    21    1
    20     7     9    1
    21     7    22    1
    22     7    23    1
    23     8    24    1
    24     8    25    1
    25     8    26    1
    26     9    27    1
    27     9    28    1
    28     9    29    1
