@<TRIPOS>MOLECULE
IMPHY008462
 42 45 0 0 0
SMALL
GASTEIGER

@<TRIPOS>ATOM
      1 O           2.9042   -0.3704    0.0000 O.3     1  UNL1       -0.5054
      2 O           4.6362    3.6296    0.0000 O.3     1  UNL1       -0.5060
      3 O           7.2564    0.0851    0.0000 O.2     1  UNL1       -0.2872
      4 O           6.3846    3.6642    0.0000 O.2     1  UNL1       -0.2871
      5 O           2.0000   -1.8672    0.0000 O.2     1  UNL1       -0.2871
      6 O           5.5240   -3.9018    0.0000 O.2     1  UNL1       -0.2873
      7 C           4.6362    0.6296    0.0000 C.ar    1  UNL1        0.0005
      8 C           4.6362   -0.3704    0.0000 C.ar    1  UNL1        0.0282
      9 C           5.5022    1.1296    0.0000 C.ar    1  UNL1        0.0440
     10 C           5.5022   -0.8704    0.0000 C.ar    1  UNL1       -0.0385
     11 C           3.7702    1.1296    0.0000 C.ar    1  UNL1       -0.0385
     12 C           3.7702   -0.8704    0.0000 C.ar    1  UNL1        0.1363
     13 C           5.5022    2.1296    0.0000 C.ar    1  UNL1        0.0744
     14 C           3.7702   -1.8704    0.0000 C.ar    1  UNL1        0.0744
     15 C           4.6362   -2.3704    0.0000 C.ar    1  UNL1        0.0362
     16 C           5.5022   -1.8704    0.0000 C.ar    1  UNL1       -0.0465
     17 C           3.7702    2.1296    0.0000 C.ar    1  UNL1       -0.0159
     18 C           4.6362    2.6296    0.0000 C.ar    1  UNL1        0.1286
     19 C           6.3962    0.5950    0.0000 C.2     1  UNL1        0.1876
     20 C           6.3683   -1.3704    0.0000 C.3     1  UNL1       -0.0390
     21 C           2.9042    0.6296    0.0000 C.3     1  UNL1       -0.0390
     22 C           6.3962    2.6643    0.0000 C.2     1  UNL1        0.1904
     23 C           2.8602   -2.3772    0.0000 C.2     1  UNL1        0.1904
     24 C           4.6523   -3.4119    0.0000 C.2     1  UNL1        0.1870
     25 C           7.3022    1.1088    0.0000 C.2     1  UNL1       -0.0107
     26 C           7.3022    2.1505    0.0000 C.2     1  UNL1       -0.0106
     27 C           2.8522   -3.4188    0.0000 C.2     1  UNL1       -0.0106
     28 C           3.7542   -3.9396    0.0000 C.2     1  UNL1       -0.0107
     29 H           6.0392   -2.1804    0.0000 H       1  UNL1        0.0628
     30 H           3.2332    2.4396    0.0000 H       1  UNL1        0.0657
     31 H           6.0583   -1.9073    0.0000 H       1  UNL1        0.0278
     32 H           6.9052   -1.6804    0.0000 H       1  UNL1        0.0278
     33 H           6.6783   -0.8334    0.0000 H       1  UNL1        0.0278
     34 H           2.5942    1.1666    0.0000 H       1  UNL1        0.0278
     35 H           2.3672    0.3196    0.0000 H       1  UNL1        0.0278
     36 H           3.2142    0.0927    0.0000 H       1  UNL1        0.0278
     37 H           7.8380    0.7967    0.0000 H       1  UNL1        0.0657
     38 H           7.8380    2.4625    0.0000 H       1  UNL1        0.0657
     39 H           2.3140   -3.7267    0.0000 H       1  UNL1        0.0657
     40 H           3.7566   -4.5596    0.0000 H       1  UNL1        0.0657
     41 H           2.3672   -0.6804    0.0000 H       1  UNL1        0.2922
     42 H           4.0993    3.9396    0.0000 H       1  UNL1        0.2922
@<TRIPOS>BOND
     1     1    12    1
     2     1    41    1
     3     2    18    1
     4     2    42    1
     5     3    19    2
     6     4    22    2
     7     5    23    2
     8     6    24    2
     9     7     8    1
    10     7     9   ar
    11     7    11   ar
    12     8    10   ar
    13     8    12   ar
    14     9    13   ar
    15     9    19    1
    16    10    16   ar
    17    10    20    1
    18    11    17   ar
    19    11    21    1
    20    12    14   ar
    21    13    18   ar
    22    13    22    1
    23    14    15   ar
    24    14    23    1
    25    15    16   ar
    26    15    24    1
    27    16    29    1
    28    17    18   ar
    29    17    30    1
    30    19    25    1
    31    20    31    1
    32    20    32    1
    33    20    33    1
    34    21    34    1
    35    21    35    1
    36    21    36    1
    37    22    26    1
    38    23    27    1
    39    24    28    1
    40    25    26    2
    41    25    37    1
    42    26    38    1
    43    27    28    2
    44    27    39    1
    45    28    40    1
