@<TRIPOS>MOLECULE
IMPHY009216
 75 78 0 0 0
SMALL
GASTEIGER

@<TRIPOS>ATOM
      1 O           3.7891   -0.5090    0.0000 O.3     1  UNL1       -0.3713
      2 O           7.1013   -0.1489    0.0000 O.3     1  UNL1       -0.3483
      3 O           8.2603   -1.4361    0.0000 O.3     1  UNL1       -0.3461
      4 O           8.5876    1.1893    0.0000 O.3     1  UNL1       -0.3841
      5 O          10.4897    0.5713    0.0000 O.3     1  UNL1       -0.3864
      6 O          10.9055   -1.3850    0.0000 O.3     1  UNL1       -0.3869
      7 O           6.3301   -4.0968    0.0000 O.3     1  UNL1       -0.4913
      8 O           2.8660   -4.0968    0.0000 O.3     1  UNL1       -0.4913
      9 O           6.0480    4.6962    0.0000 O.3     1  UNL1       -0.4913
     10 O           2.8833    3.2872    0.0000 O.3     1  UNL1       -0.4913
     11 O           4.5981   -5.0968    0.0000 O.3     1  UNL1       -0.5009
     12 O           4.0589    4.9052    0.0000 O.3     1  UNL1       -0.5009
     13 C           5.4071   -0.5090    0.0000 C.3     1  UNL1        0.0181
     14 C           5.0981    0.4420    0.0000 C.3     1  UNL1       -0.0060
     15 C           4.5981   -1.0968    0.0000 C.3     1  UNL1        0.0891
     16 C           4.0981    0.4420    0.0000 C.3     1  UNL1        0.0520
     17 C           6.3582   -0.8180    0.0000 C.3     1  UNL1        0.0566
     18 C           5.6859    1.2510    0.0000 C.3     1  UNL1       -0.0221
     19 C           4.5981   -2.0968    0.0000 C.ar    1  UNL1       -0.0114
     20 C           8.0524   -0.4579    0.0000 C.3     1  UNL1        0.1875
     21 C           5.2791    2.1646    0.0000 C.ar    1  UNL1       -0.0399
     22 C           8.7955    0.2112    0.0000 C.3     1  UNL1        0.1341
     23 C           9.7465   -0.0978    0.0000 C.3     1  UNL1        0.1137
     24 C           3.7320   -2.5968    0.0000 C.ar    1  UNL1       -0.0104
     25 C           5.4641   -2.5968    0.0000 C.ar    1  UNL1       -0.0104
     26 C           9.9545   -1.0760    0.0000 C.3     1  UNL1        0.1069
     27 C           9.2113   -1.7451    0.0000 C.3     1  UNL1        0.0792
     28 C           4.2846    2.2691    0.0000 C.ar    1  UNL1       -0.0129
     29 C           5.8669    2.9736    0.0000 C.ar    1  UNL1       -0.0129
     30 C           5.4641   -3.5968    0.0000 C.ar    1  UNL1        0.1653
     31 C           3.7320   -3.5968    0.0000 C.ar    1  UNL1        0.1653
     32 C           4.5981   -4.0968    0.0000 C.ar    1  UNL1        0.2010
     33 C           5.4602    3.8872    0.0000 C.ar    1  UNL1        0.1652
     34 C           3.8779    3.1827    0.0000 C.ar    1  UNL1        0.1652
     35 C           4.4656    3.9917    0.0000 C.ar    1  UNL1        0.2010
     36 C           7.1962   -3.5968    0.0000 C.3     1  UNL1        0.0790
     37 C           2.0000   -3.5968    0.0000 C.3     1  UNL1        0.0790
     38 C           7.0425    4.5916    0.0000 C.3     1  UNL1        0.0790
     39 C           2.4766    4.2007    0.0000 C.3     1  UNL1        0.0790
     40 H           5.5041   -1.1214    0.0000 H       1  UNL1        0.0355
     41 H           5.7104    0.3450    0.0000 H       1  UNL1        0.0330
     42 H           5.1505   -1.3783    0.0000 H       1  UNL1        0.0650
     43 H           4.1629    1.0586    0.0000 H       1  UNL1        0.0563
     44 H           3.4916    0.5709    0.0000 H       1  UNL1        0.0563
     45 H           6.0671   -1.3655    0.0000 H       1  UNL1        0.0564
     46 H           6.8467   -1.1998    0.0000 H       1  UNL1        0.0564
     47 H           6.1166    0.8051    0.0000 H       1  UNL1        0.0317
     48 H           6.1999    1.5977    0.0000 H       1  UNL1        0.0317
     49 H           7.9234    0.1485    0.0000 H       1  UNL1        0.0937
     50 H           9.2562    0.6261    0.0000 H       1  UNL1        0.0671
     51 H          10.3362   -0.2894    0.0000 H       1  UNL1        0.0647
     52 H           3.1951   -2.2868    0.0000 H       1  UNL1        0.0659
     53 H           6.0010   -2.2868    0.0000 H       1  UNL1        0.0659
     54 H          10.0834   -1.6824    0.0000 H       1  UNL1        0.0643
     55 H           8.9202   -2.2925    0.0000 H       1  UNL1        0.0587
     56 H           9.6999   -2.1268    0.0000 H       1  UNL1        0.0587
     57 H           3.9202    1.7675    0.0000 H       1  UNL1        0.0658
     58 H           6.4835    2.9088    0.0000 H       1  UNL1        0.0658
     59 H           9.0483    1.6042    0.0000 H       1  UNL1        0.2101
     60 H          11.0794    0.3797    0.0000 H       1  UNL1        0.2100
     61 H          11.0344   -1.9914    0.0000 H       1  UNL1        0.2100
     62 H           4.0611   -5.4068    0.0000 H       1  UNL1        0.2924
     63 H           4.4233    5.4068    0.0000 H       1  UNL1        0.2924
     64 H           7.5062   -4.1338    0.0000 H       1  UNL1        0.0660
     65 H           7.7331   -3.2868    0.0000 H       1  UNL1        0.0660
     66 H           6.8862   -3.0599    0.0000 H       1  UNL1        0.0660
     67 H           2.3100   -3.0599    0.0000 H       1  UNL1        0.0660
     68 H           1.4631   -3.2868    0.0000 H       1  UNL1        0.0660
     69 H           1.6900   -4.1338    0.0000 H       1  UNL1        0.0660
     70 H           6.9777    3.9750    0.0000 H       1  UNL1        0.0660
     71 H           7.6591    4.5268    0.0000 H       1  UNL1        0.0660
     72 H           7.1073    5.2082    0.0000 H       1  UNL1        0.0660
     73 H           3.0430    4.4529    0.0000 H       1  UNL1        0.0660
     74 H           2.2244    4.7671    0.0000 H       1  UNL1        0.0660
     75 H           1.9102    3.9486    0.0000 H       1  UNL1        0.0660
@<TRIPOS>BOND
     1     1    15    1
     2     1    16    1
     3     2    17    1
     4     2    20    1
     5     3    20    1
     6     3    27    1
     7     4    22    1
     8     4    59    1
     9     5    23    1
    10     5    60    1
    11     6    26    1
    12     6    61    1
    13     7    30    1
    14     7    36    1
    15     8    31    1
    16     8    37    1
    17     9    33    1
    18     9    38    1
    19    10    34    1
    20    10    39    1
    21    11    32    1
    22    11    62    1
    23    12    35    1
    24    12    63    1
    25    13    14    1
    26    13    15    1
    27    13    17    1
    28    13    40    1
    29    14    16    1
    30    14    18    1
    31    14    41    1
    32    15    19    1
    33    15    42    1
    34    16    43    1
    35    16    44    1
    36    17    45    1
    37    17    46    1
    38    18    21    1
    39    18    47    1
    40    18    48    1
    41    19    24   ar
    42    19    25   ar
    43    20    22    1
    44    20    49    1
    45    21    28   ar
    46    21    29   ar
    47    22    23    1
    48    22    50    1
    49    23    26    1
    50    23    51    1
    51    24    31   ar
    52    24    52    1
    53    25    30   ar
    54    25    53    1
    55    26    27    1
    56    26    54    1
    57    27    55    1
    58    27    56    1
    59    28    34   ar
    60    28    57    1
    61    29    33   ar
    62    29    58    1
    63    30    32   ar
    64    31    32   ar
    65    33    35   ar
    66    34    35   ar
    67    36    64    1
    68    36    65    1
    69    36    66    1
    70    37    67    1
    71    37    68    1
    72    37    69    1
    73    38    70    1
    74    38    71    1
    75    38    72    1
    76    39    73    1
    77    39    74    1
    78    39    75    1
