@<TRIPOS>MOLECULE
IMPHY008442
 47 50 0 0 0
SMALL
GASTEIGER

@<TRIPOS>ATOM
      1 O           4.9520   -1.4455    0.0000 O.3     1  UNL1       -0.3283
      2 O           4.7931   -0.2384    0.0000 O.3     1  UNL1       -0.4570
      3 O           7.3662   -1.4455    0.0000 O.3     1  UNL1       -0.3824
      4 O           4.7771    2.8308    0.0000 O.2     1  UNL1       -0.4217
      5 O           6.5469    2.7930    0.0000 O.2     1  UNL1       -0.2447
      6 C           5.6591   -0.7384    0.0000 C.3     1  UNL1        0.2430
      7 C           6.3662   -1.4455    0.0000 C.3     1  UNL1        0.1486
      8 C           5.6591   -2.1526    0.0000 C.3     1  UNL1        0.1002
      9 C           6.5251   -0.2384    0.0000 C.3     1  UNL1        0.0288
     10 C           6.5251    0.7616    0.0000 C.3     1  UNL1        0.0270
     11 C           5.6591    1.2616    0.0000 C.ar    1  UNL1        0.0891
     12 C           4.9520   -2.8598    0.0000 C.3     1  UNL1       -0.0333
     13 C           6.3662   -2.8598    0.0000 C.3     1  UNL1       -0.0333
     14 C           4.7931    0.7616    0.0000 C.ar    1  UNL1        0.1460
     15 C           7.0251    1.6276    0.0000 C.3     1  UNL1       -0.0515
     16 C           7.5251    0.7616    0.0000 C.2     1  UNL1       -0.0804
     17 C           3.8831    1.2684    0.0000 C.ar    1  UNL1        0.0625
     18 C           5.6752    2.3031    0.0000 C.ar    1  UNL1        0.3448
     19 C           3.8751    2.3100    0.0000 C.ar    1  UNL1        0.1428
     20 C           2.9562    0.7043    0.0000 C.ar    1  UNL1       -0.0363
     21 C           8.0251    1.6276    0.0000 C.2     1  UNL1       -0.1018
     22 C           2.9396    2.8598    0.0000 C.ar    1  UNL1       -0.0185
     23 C           2.0084    1.2323    0.0000 C.ar    1  UNL1       -0.0579
     24 C           2.9755   -0.2955    0.0000 C.3     1  UNL1       -0.0389
     25 C           2.0000    2.3172    0.0000 C.ar    1  UNL1       -0.0580
     26 H           6.6035   -0.8727    0.0000 H       1  UNL1        0.0688
     27 H           6.7372   -0.8210    0.0000 H       1  UNL1        0.0341
     28 H           7.1357   -0.1308    0.0000 H       1  UNL1        0.0341
     29 H           4.5136   -2.4213    0.0000 H       1  UNL1        0.0258
     30 H           4.5136   -3.2982    0.0000 H       1  UNL1        0.0258
     31 H           5.3904   -3.2982    0.0000 H       1  UNL1        0.0258
     32 H           5.9278   -3.2982    0.0000 H       1  UNL1        0.0258
     33 H           6.8046   -3.2982    0.0000 H       1  UNL1        0.0258
     34 H           6.8046   -2.4213    0.0000 H       1  UNL1        0.0258
     35 H           7.5621    1.3176    0.0000 H       1  UNL1        0.0241
     36 H           7.3351    2.1645    0.0000 H       1  UNL1        0.0241
     37 H           6.4882    1.9376    0.0000 H       1  UNL1        0.0241
     38 H           7.6762   -1.9825    0.0000 H       1  UNL1        0.2102
     39 H           7.8351    0.2246    0.0000 H       1  UNL1        0.0575
     40 H           8.6451    1.6276    0.0000 H       1  UNL1        0.0532
     41 H           7.7151    2.1645    0.0000 H       1  UNL1        0.0532
     42 H           2.9420    3.4797    0.0000 H       1  UNL1        0.0654
     43 H           1.4750    0.9161    0.0000 H       1  UNL1        0.0620
     44 H           2.3556   -0.3074    0.0000 H       1  UNL1        0.0278
     45 H           2.9875   -0.9154    0.0000 H       1  UNL1        0.0278
     46 H           3.5954   -0.2835    0.0000 H       1  UNL1        0.0278
     47 H           1.4619    2.6252    0.0000 H       1  UNL1        0.0619
@<TRIPOS>BOND
     1     6     1    1
     2     1     8    1
     3     2     6    1
     4     2    14    1
     5     7     3    1
     6     3    38    1
     7     4    18   ar
     8     4    19   ar
     9     5    18    2
    10     6     7    1
    11     6     9    1
    12     7     8    1
    13     7    26    1
    14     8    12    1
    15     8    13    1
    16     9    10    1
    17     9    27    1
    18     9    28    1
    19    10    11    1
    20    10    15    1
    21    10    16    1
    22    11    14   ar
    23    11    18   ar
    24    12    29    1
    25    12    30    1
    26    12    31    1
    27    13    32    1
    28    13    33    1
    29    13    34    1
    30    14    17   ar
    31    15    35    1
    32    15    36    1
    33    15    37    1
    34    16    21    2
    35    16    39    1
    36    17    19   ar
    37    17    20   ar
    38    19    22   ar
    39    20    23   ar
    40    20    24    1
    41    21    40    1
    42    21    41    1
    43    22    25   ar
    44    22    42    1
    45    23    25   ar
    46    23    43    1
    47    24    44    1
    48    24    45    1
    49    24    46    1
    50    25    47    1
