@<TRIPOS>MOLECULE
IMPHY007278
 20 19 0 0 0
SMALL
GASTEIGER

@<TRIPOS>ATOM
      1 S           4.5981    0.7500    0.0000 S.3     1  UNL1       -0.0787
      2 S           5.4641    0.2500    0.0000 S.3     1  UNL1       -0.0242
      3 S           6.3301    0.7500    0.0000 S.3     1  UNL1       -0.0852
      4 C           3.7320    0.2500    0.0000 C.3     1  UNL1        0.0132
      5 C           2.8660    0.7500    0.0000 C.3     1  UNL1       -0.0434
      6 C           3.7320   -0.7500    0.0000 C.3     1  UNL1       -0.0525
      7 C           2.0000    0.2500    0.0000 C.3     1  UNL1       -0.0643
      8 C           7.1962    0.2500    0.0000 C.3     1  UNL1       -0.0071
      9 H           4.2690   -0.0600    0.0000 H       1  UNL1        0.0418
     10 H           3.2646    1.2250    0.0000 H       1  UNL1        0.0273
     11 H           2.4675    1.2250    0.0000 H       1  UNL1        0.0273
     12 H           3.1120   -0.7500    0.0000 H       1  UNL1        0.0241
     13 H           3.7320   -1.3700    0.0000 H       1  UNL1        0.0241
     14 H           4.3520   -0.7500    0.0000 H       1  UNL1        0.0241
     15 H           1.6900    0.7869    0.0000 H       1  UNL1        0.0230
     16 H           1.4631   -0.0600    0.0000 H       1  UNL1        0.0230
     17 H           2.3100   -0.2869    0.0000 H       1  UNL1        0.0230
     18 H           6.8862   -0.2869    0.0000 H       1  UNL1        0.0349
     19 H           7.7331   -0.0600    0.0000 H       1  UNL1        0.0349
     20 H           7.5062    0.7869    0.0000 H       1  UNL1        0.0349
@<TRIPOS>BOND
     1     1     2    1
     2     1     4    1
     3     2     3    1
     4     3     8    1
     5     4     5    1
     6     4     6    1
     7     4     9    1
     8     5     7    1
     9     5    10    1
    10     5    11    1
    11     6    12    1
    12     6    13    1
    13     6    14    1
    14     7    15    1
    15     7    16    1
    16     7    17    1
    17     8    18    1
    18     8    19    1
    19     8    20    1
