@<TRIPOS>MOLECULE
IMPHY005753
 20 19 0 0 0
SMALL
GASTEIGER

@<TRIPOS>ATOM
      1 O           6.8671    0.6550    0.0000 O.3     1  UNL1       -0.4782
      2 O           6.0010    2.1550    0.0000 O.2     1  UNL1       -0.2470
      3 O           3.4030   -0.3450    0.0000 O.2     1  UNL1       -0.2530
      4 O           6.8671   -0.3450    0.0000 O.2     1  UNL1       -0.2530
      5 N           4.2690    1.1550    0.0000 N.am    1  UNL1       -0.2720
      6 N           5.1350   -0.3450    0.0000 N.am    1  UNL1       -0.2720
      7 N           2.5369    1.1550    0.0000 N.am    1  UNL1       -0.3133
      8 N           6.0010   -1.8450    0.0000 N.am    1  UNL1       -0.3133
      9 C           5.1350    0.6550    0.0000 C.3     1  UNL1        0.1912
     10 C           6.0010    1.1550    0.0000 C.2     1  UNL1        0.3439
     11 C           3.4030    0.6550    0.0000 C.2     1  UNL1        0.2988
     12 C           6.0010   -0.8450    0.0000 C.2     1  UNL1        0.2988
     13 H           5.1350    1.2750    0.0000 H       1  UNL1        0.0829
     14 H           4.2690    1.7750    0.0000 H       1  UNL1        0.1525
     15 H           4.5981   -0.6550    0.0000 H       1  UNL1        0.1525
     16 H           7.4040    0.9650    0.0000 H       1  UNL1        0.2952
     17 H           2.0000    0.8450    0.0000 H       1  UNL1        0.1465
     18 H           2.5369    1.7750    0.0000 H       1  UNL1        0.1465
     19 H           6.5380   -2.1550    0.0000 H       1  UNL1        0.1465
     20 H           5.4641   -2.1550    0.0000 H       1  UNL1        0.1465
@<TRIPOS>BOND
     1     1    10    1
     2     1    16    1
     3     2    10    2
     4     3    11    2
     5     4    12    2
     6     5     9    1
     7     5    11   am
     8     5    14    1
     9     6     9    1
    10     6    12   am
    11     6    15    1
    12     7    11   am
    13     7    17    1
    14     7    18    1
    15     8    12   am
    16     8    19    1
    17     8    20    1
    18     9    10    1
    19     9    13    1
