@<TRIPOS>MOLECULE
IMPHY015037
 35 38 0 0 0
SMALL
GASTEIGER

@<TRIPOS>ATOM
      1 O           6.1017   -1.2077    0.0000 O.3     1  UNL1       -0.4485
      2 O           2.8660   -0.1246    0.0000 O.3     1  UNL1       -0.3797
      3 O           7.2231   -2.5668    0.0000 O.2     1  UNL1       -0.2456
      4 N           5.4251    1.3529    0.0000 N.3     1  UNL1       -0.2886
      5 C           5.4251    0.3754    0.0000 C.3     1  UNL1        0.0574
      6 C           6.1894   -0.2341    0.0000 C.3     1  UNL1        0.1560
      7 C           6.1894    1.9623    0.0000 C.3     1  UNL1        0.0335
      8 C           6.6205    0.9293    0.0000 C.3     1  UNL1        0.0122
      9 C           4.5786   -0.1134    0.0000 C.3     1  UNL1       -0.0068
     10 C           4.5786    1.8416    0.0000 C.3     1  UNL1        0.0022
     11 C           7.1424   -0.0166    0.0000 C.2     1  UNL1        0.0039
     12 C           3.7320    0.3754    0.0000 C.3     1  UNL1        0.0611
     13 C           3.7320    1.3529    0.0000 C.3     1  UNL1       -0.0137
     14 C           7.1424    1.7448    0.0000 C.2     1  UNL1       -0.0665
     15 C           7.5665    0.8641    0.0000 C.2     1  UNL1       -0.0570
     16 C           7.6437   -0.8557    0.0000 C.2     1  UNL1        0.0295
     17 C           7.0006   -1.5918    0.0000 C.2     1  UNL1        0.3332
     18 C           2.0000    0.3754    0.0000 C.3     1  UNL1        0.0368
     19 H           5.3616   -0.4723    0.0000 H       1  UNL1        0.0506
     20 H           6.0002    2.7910    0.0000 H       1  UNL1        0.0508
     21 H           7.1220    0.5648    0.0000 H       1  UNL1        0.0326
     22 H           7.1069    1.3137    0.0000 H       1  UNL1        0.0326
     23 H           4.1801   -0.5883    0.0000 H       1  UNL1        0.0307
     24 H           4.9771   -0.5883    0.0000 H       1  UNL1        0.0307
     25 H           4.9771    2.3166    0.0000 H       1  UNL1        0.0428
     26 H           4.1801    2.3166    0.0000 H       1  UNL1        0.0428
     27 H           3.7320   -0.2446    0.0000 H       1  UNL1        0.0597
     28 H           3.5200    1.9355    0.0000 H       1  UNL1        0.0302
     29 H           3.1215    1.2452    0.0000 H       1  UNL1        0.0302
     30 H           7.5289    2.2295    0.0000 H       1  UNL1        0.0588
     31 H           8.1865    0.8641    0.0000 H       1  UNL1        0.0619
     32 H           8.2612   -0.9113    0.0000 H       1  UNL1        0.0693
     33 H           2.3100    0.9123    0.0000 H       1  UNL1        0.0524
     34 H           1.4631    0.6854    0.0000 H       1  UNL1        0.0524
     35 H           1.6900   -0.1616    0.0000 H       1  UNL1        0.0524
@<TRIPOS>BOND
     1     1     6    1
     2     1    17    1
     3    12     2    1
     4     2    18    1
     5     3    17    2
     6     4     5    1
     7     4     7    1
     8     4    10    1
     9     5     6    1
    10     5     9    1
    11     5    19    1
    12     6     8    1
    13     6    11    1
    14     7     8    1
    15     7    14    1
    16     7    20    1
    17     8    21    1
    18     8    22    1
    19     9    12    1
    20     9    23    1
    21     9    24    1
    22    10    13    1
    23    10    25    1
    24    10    26    1
    25    11    15    1
    26    11    16    2
    27    12    13    1
    28    12    27    1
    29    13    28    1
    30    13    29    1
    31    14    15    2
    32    14    30    1
    33    15    31    1
    34    16    17    1
    35    16    32    1
    36    18    33    1
    37    18    34    1
    38    18    35    1
