@<TRIPOS>MOLECULE
IMPHY002571
 46 48 0 0 0
SMALL
GASTEIGER

@<TRIPOS>ATOM
      1 O           8.0901    0.7753    0.0000 O.3     1  UNL1       -0.4807
      2 O           6.3301    3.8100    0.0000 O.3     1  UNL1       -0.4943
      3 O           4.5981    0.8100    0.0000 O.3     1  UNL1       -0.5058
      4 O           7.1962   -0.6900    0.0000 O.2     1  UNL1       -0.2870
      5 O           2.0000   -3.6900    0.0000 O.3     1  UNL1       -0.5068
      6 C           8.9962    1.2892    0.0000 C.3     1  UNL1        0.1235
      7 C           7.1962    1.3100    0.0000 C.ar    1  UNL1        0.1467
      8 C           7.1962    2.3100    0.0000 C.ar    1  UNL1        0.0591
      9 C           8.9962    2.3308    0.0000 C.2     1  UNL1       -0.0408
     10 C           9.9962    1.2853    0.0000 C.3     1  UNL1       -0.0215
     11 C           9.4928    0.4212    0.0000 C.3     1  UNL1       -0.0215
     12 C           8.0901    2.8447    0.0000 C.2     1  UNL1       -0.0478
     13 C           6.3301    0.8100    0.0000 C.ar    1  UNL1        0.1054
     14 C           6.3301    2.8100    0.0000 C.ar    1  UNL1        0.1342
     15 C           5.4641    1.3100    0.0000 C.ar    1  UNL1        0.1347
     16 C           5.4641    2.3100    0.0000 C.ar    1  UNL1        0.0231
     17 C           6.3301   -0.1900    0.0000 C.2     1  UNL1        0.1931
     18 C           5.4641   -0.6900    0.0000 C.2     1  UNL1       -0.0135
     19 C           5.4641   -1.6900    0.0000 C.2     1  UNL1       -0.0510
     20 C           5.4641    4.3100    0.0000 C.3     1  UNL1        0.0788
     21 C           4.5981   -2.1900    0.0000 C.ar    1  UNL1       -0.0247
     22 C           3.7320   -1.6900    0.0000 C.ar    1  UNL1       -0.0511
     23 C           4.5981   -3.1900    0.0000 C.ar    1  UNL1       -0.0511
     24 C           2.8660   -2.1900    0.0000 C.ar    1  UNL1       -0.0196
     25 C           3.7320   -3.6900    0.0000 C.ar    1  UNL1       -0.0196
     26 C           2.8660   -3.1900    0.0000 C.ar    1  UNL1        0.1169
     27 H           9.5319    2.6429    0.0000 H       1  UNL1        0.0611
     28 H           9.9938    0.6653    0.0000 H       1  UNL1        0.0271
     29 H           8.9547    0.1133    0.0000 H       1  UNL1        0.0271
     30 H           9.8008   -0.1169    0.0000 H       1  UNL1        0.0271
     31 H          10.0309    0.7292    0.0000 H       1  UNL1        0.0271
     32 H          10.6161    1.2829    0.0000 H       1  UNL1        0.0271
     33 H           9.9985    1.9053    0.0000 H       1  UNL1        0.0271
     34 H           8.0829    3.4646    0.0000 H       1  UNL1        0.0624
     35 H           4.9272    2.6200    0.0000 H       1  UNL1        0.0691
     36 H           4.9272   -0.3800    0.0000 H       1  UNL1        0.0656
     37 H           4.0611    1.1200    0.0000 H       1  UNL1        0.2922
     38 H           6.0010   -2.0000    0.0000 H       1  UNL1        0.0625
     39 H           5.7741    4.8469    0.0000 H       1  UNL1        0.0660
     40 H           4.9272    4.6200    0.0000 H       1  UNL1        0.0660
     41 H           5.1541    3.7731    0.0000 H       1  UNL1        0.0660
     42 H           3.7320   -1.0700    0.0000 H       1  UNL1        0.0625
     43 H           5.1350   -3.5000    0.0000 H       1  UNL1        0.0625
     44 H           2.3291   -1.8800    0.0000 H       1  UNL1        0.0654
     45 H           3.7320   -4.3100    0.0000 H       1  UNL1        0.0654
     46 H           2.0000   -4.3100    0.0000 H       1  UNL1        0.2921
@<TRIPOS>BOND
     1     1     6    1
     2     1     7    1
     3     2    14    1
     4     2    20    1
     5     3    15    1
     6     3    37    1
     7     4    17    2
     8     5    26    1
     9     5    46    1
    10     6     9    1
    11     6    10    1
    12     6    11    1
    13     7     8   ar
    14     7    13   ar
    15     8    12    1
    16     8    14   ar
    17     9    12    2
    18     9    27    1
    19    10    28    1
    20    10    32    1
    21    10    33    1
    22    11    29    1
    23    11    30    1
    24    11    31    1
    25    12    34    1
    26    13    15   ar
    27    13    17    1
    28    14    16   ar
    29    15    16   ar
    30    16    35    1
    31    17    18    1
    32    18    19    2
    33    18    36    1
    34    19    21    1
    35    19    38    1
    36    20    39    1
    37    20    40    1
    38    20    41    1
    39    21    22   ar
    40    21    23   ar
    41    22    24   ar
    42    22    42    1
    43    23    25   ar
    44    23    43    1
    45    24    26   ar
    46    24    44    1
    47    25    26   ar
    48    25    45    1
