@<TRIPOS>MOLECULE
IMPHY013393
 59 62 0 0 0
SMALL
GASTEIGER

@<TRIPOS>ATOM
      1 O           4.2690   -2.8813    0.0000 O.3     1  UNL1       -0.3339
      2 O           6.0010   -2.8813    0.0000 O.3     1  UNL1       -0.4603
      3 O           4.2690   -5.8813    0.0000 O.3     1  UNL1       -0.3864
      4 O           2.5369   -4.8813    0.0000 O.3     1  UNL1       -0.3866
      5 O           6.0010   -4.8813    0.0000 O.3     1  UNL1       -0.3829
      6 O           7.7771    0.1256    0.0000 O.2     1  UNL1       -0.4616
      7 O           4.2690    0.1187    0.0000 O.3     1  UNL1       -0.4942
      8 O           5.1132    1.6502    0.0000 O.2     1  UNL1       -0.2863
      9 O           6.8676    5.6880    0.0000 O.3     1  UNL1       -0.4951
     10 C           4.2690   -4.8813    0.0000 C.3     1  UNL1        0.1151
     11 C           3.4030   -4.3813    0.0000 C.3     1  UNL1        0.1096
     12 C           5.1350   -4.3813    0.0000 C.3     1  UNL1        0.1454
     13 C           3.4030   -3.3813    0.0000 C.3     1  UNL1        0.0883
     14 C           5.1350   -3.3813    0.0000 C.3     1  UNL1        0.2307
     15 C           2.5369   -2.8813    0.0000 C.3     1  UNL1       -0.0360
     16 C           6.0010   -1.8813    0.0000 C.ar    1  UNL1        0.1339
     17 C           6.8671   -1.3813    0.0000 C.ar    1  UNL1        0.0344
     18 C           5.1350   -1.3813    0.0000 C.ar    1  UNL1        0.0231
     19 C           6.8671   -0.3813    0.0000 C.ar    1  UNL1        0.1483
     20 C           6.0010    0.1187    0.0000 C.ar    1  UNL1        0.1065
     21 C           5.1350   -0.3813    0.0000 C.ar    1  UNL1        0.1379
     22 C           7.7331   -1.8813    0.0000 C.3     1  UNL1       -0.0327
     23 C           5.9850    1.1602    0.0000 C.ar    1  UNL1        0.2037
     24 C           6.8830    1.6880    0.0000 C.ar    1  UNL1        0.0644
     25 C           7.7851    1.1672    0.0000 C.ar    1  UNL1        0.1039
     26 C           6.8792    2.6880    0.0000 C.ar    1  UNL1       -0.0110
     27 C           6.0112    3.1846    0.0000 C.ar    1  UNL1       -0.0504
     28 C           7.7432    3.1913    0.0000 C.ar    1  UNL1       -0.0504
     29 C           3.4030   -0.3813    0.0000 C.3     1  UNL1        0.0788
     30 C           6.0074    4.1846    0.0000 C.ar    1  UNL1       -0.0194
     31 C           7.7394    4.1913    0.0000 C.ar    1  UNL1       -0.0194
     32 C           6.8714    4.6880    0.0000 C.ar    1  UNL1        0.1201
     33 C           7.7317    6.1913    0.0000 C.3     1  UNL1        0.0788
     34 H           3.7320   -5.1913    0.0000 H       1  UNL1        0.0648
     35 H           3.4030   -5.0013    0.0000 H       1  UNL1        0.0646
     36 H           5.1350   -5.0013    0.0000 H       1  UNL1        0.0683
     37 H           3.4030   -2.7613    0.0000 H       1  UNL1        0.0621
     38 H           5.1350   -2.7613    0.0000 H       1  UNL1        0.1084
     39 H           2.8469   -2.3444    0.0000 H       1  UNL1        0.0255
     40 H           2.0000   -2.5713    0.0000 H       1  UNL1        0.0255
     41 H           2.2269   -3.4182    0.0000 H       1  UNL1        0.0255
     42 H           3.7320   -6.1913    0.0000 H       1  UNL1        0.2100
     43 H           2.0000   -4.5713    0.0000 H       1  UNL1        0.2100
     44 H           6.0010   -5.5013    0.0000 H       1  UNL1        0.2102
     45 H           4.5981   -1.6913    0.0000 H       1  UNL1        0.0691
     46 H           7.4231   -2.4182    0.0000 H       1  UNL1        0.0280
     47 H           8.2700   -2.1913    0.0000 H       1  UNL1        0.0280
     48 H           8.0431   -1.3444    0.0000 H       1  UNL1        0.0280
     49 H           8.3232    1.4751    0.0000 H       1  UNL1        0.1037
     50 H           5.4755    2.8726    0.0000 H       1  UNL1        0.0625
     51 H           8.2814    2.8834    0.0000 H       1  UNL1        0.0625
     52 H           3.0930    0.1557    0.0000 H       1  UNL1        0.0660
     53 H           2.8660   -0.6913    0.0000 H       1  UNL1        0.0660
     54 H           3.7130   -0.9182    0.0000 H       1  UNL1        0.0660
     55 H           5.4692    4.4925    0.0000 H       1  UNL1        0.0654
     56 H           8.2751    4.5034    0.0000 H       1  UNL1        0.0654
     57 H           8.0438    5.6556    0.0000 H       1  UNL1        0.0660
     58 H           8.2674    6.5034    0.0000 H       1  UNL1        0.0660
     59 H           7.4196    6.7270    0.0000 H       1  UNL1        0.0660
@<TRIPOS>BOND
     1     1    13    1
     2     1    14    1
     3    14     2    1
     4     2    16    1
     5    10     3    1
     6     3    42    1
     7    11     4    1
     8     4    43    1
     9     5    12    1
    10     5    44    1
    11     6    19   ar
    12     6    25   ar
    13     7    21    1
    14     7    29    1
    15     8    23    2
    16     9    32    1
    17     9    33    1
    18    10    11    1
    19    10    12    1
    20    10    34    1
    21    11    13    1
    22    11    35    1
    23    12    14    1
    24    12    36    1
    25    13    15    1
    26    13    37    1
    27    14    38    1
    28    15    39    1
    29    15    40    1
    30    15    41    1
    31    16    17   ar
    32    16    18   ar
    33    17    19   ar
    34    17    22    1
    35    18    21   ar
    36    18    45    1
    37    19    20   ar
    38    20    21   ar
    39    20    23   ar
    40    22    46    1
    41    22    47    1
    42    22    48    1
    43    23    24   ar
    44    24    25   ar
    45    24    26    1
    46    25    49    1
    47    26    27   ar
    48    26    28   ar
    49    27    30   ar
    50    27    50    1
    51    28    31   ar
    52    28    51    1
    53    29    52    1
    54    29    53    1
    55    29    54    1
    56    30    32   ar
    57    30    55    1
    58    31    32   ar
    59    31    56    1
    60    33    57    1
    61    33    58    1
    62    33    59    1
