@<TRIPOS>MOLECULE
IMPHY009589
 51 52 0 0 0
SMALL
GASTEIGER

@<TRIPOS>ATOM
      1 O           3.7320    1.9400    0.0000 O.3     1  UNL1       -0.3856
      2 O           4.5981   -2.5600    0.0000 O.3     1  UNL1       -0.4880
      3 O           7.1962    2.9400    0.0000 O.2     1  UNL1       -0.2708
      4 N           5.4641    2.9400    0.0000 N.am    1  UNL1       -0.3090
      5 C           4.5981    1.4400    0.0000 C.3     1  UNL1        0.0956
      6 C           4.5981    0.4400    0.0000 C.ar    1  UNL1       -0.0174
      7 C           5.4641    1.9400    0.0000 C.3     1  UNL1        0.0420
      8 C           3.7320   -0.0600    0.0000 C.ar    1  UNL1       -0.0526
      9 C           5.4641   -0.0600    0.0000 C.ar    1  UNL1       -0.0526
     10 C           4.5981   -1.5600    0.0000 C.ar    1  UNL1        0.1210
     11 C           3.7320   -1.0600    0.0000 C.ar    1  UNL1       -0.0196
     12 C           5.4641   -1.0600    0.0000 C.ar    1  UNL1       -0.0196
     13 C           6.3301    3.4400    0.0000 C.2     1  UNL1        0.2370
     14 C           3.7320   -3.0600    0.0000 C.3     1  UNL1        0.1080
     15 C           3.7320   -4.0600    0.0000 C.2     1  UNL1       -0.0484
     16 C           6.3301    4.4400    0.0000 C.2     1  UNL1        0.0007
     17 C           2.8660   -4.5600    0.0000 C.2     1  UNL1       -0.0765
     18 C           7.1962    4.9400    0.0000 C.2     1  UNL1       -0.0497
     19 C           8.0622    4.4400    0.0000 C.ar    1  UNL1       -0.0249
     20 C           2.8660   -5.5600    0.0000 C.3     1  UNL1       -0.0439
     21 C           2.0000   -4.0600    0.0000 C.3     1  UNL1       -0.0439
     22 C           8.9282    4.9400    0.0000 C.ar    1  UNL1       -0.0546
     23 C           8.0622    3.4400    0.0000 C.ar    1  UNL1       -0.0546
     24 C           9.7942    4.4400    0.0000 C.ar    1  UNL1       -0.0612
     25 C           8.9282    2.9400    0.0000 C.ar    1  UNL1       -0.0612
     26 C           9.7942    3.4400    0.0000 C.ar    1  UNL1       -0.0617
     27 H           4.5981    2.0600    0.0000 H       1  UNL1        0.0659
     28 H           5.6762    1.3574    0.0000 H       1  UNL1        0.0491
     29 H           6.0747    2.0477    0.0000 H       1  UNL1        0.0491
     30 H           3.1951    0.2500    0.0000 H       1  UNL1        0.0622
     31 H           6.0010    0.2500    0.0000 H       1  UNL1        0.0622
     32 H           4.9272    3.2500    0.0000 H       1  UNL1        0.1491
     33 H           3.1951   -1.3700    0.0000 H       1  UNL1        0.0654
     34 H           6.0010   -1.3700    0.0000 H       1  UNL1        0.0654
     35 H           3.7320    2.5600    0.0000 H       1  UNL1        0.2103
     36 H           3.5200   -2.4774    0.0000 H       1  UNL1        0.0742
     37 H           3.1215   -3.1677    0.0000 H       1  UNL1        0.0742
     38 H           4.2690   -4.3700    0.0000 H       1  UNL1        0.0605
     39 H           5.7932    4.7500    0.0000 H       1  UNL1        0.0669
     40 H           7.1962    5.5600    0.0000 H       1  UNL1        0.0625
     41 H           2.3100   -3.5231    0.0000 H       1  UNL1        0.0274
     42 H           1.4631   -3.7500    0.0000 H       1  UNL1        0.0274
     43 H           2.2460   -5.5600    0.0000 H       1  UNL1        0.0274
     44 H           2.8660   -6.1800    0.0000 H       1  UNL1        0.0274
     45 H           3.4860   -5.5600    0.0000 H       1  UNL1        0.0274
     46 H           1.6900   -4.5969    0.0000 H       1  UNL1        0.0274
     47 H           8.9282    5.5600    0.0000 H       1  UNL1        0.0623
     48 H           7.5252    3.1300    0.0000 H       1  UNL1        0.0623
     49 H          10.3312    4.7500    0.0000 H       1  UNL1        0.0618
     50 H           8.9282    2.3200    0.0000 H       1  UNL1        0.0618
     51 H          10.3312    3.1300    0.0000 H       1  UNL1        0.0618
@<TRIPOS>BOND
     1     1     5    1
     2     1    35    1
     3     2    10    1
     4     2    14    1
     5     3    13    2
     6     4     7    1
     7     4    13   am
     8     4    32    1
     9     5     6    1
    10     5     7    1
    11     5    27    1
    12     6     8   ar
    13     6     9   ar
    14     7    28    1
    15     7    29    1
    16     8    11   ar
    17     8    30    1
    18     9    12   ar
    19     9    31    1
    20    10    11   ar
    21    10    12   ar
    22    11    33    1
    23    12    34    1
    24    13    16    1
    25    14    15    1
    26    14    36    1
    27    14    37    1
    28    15    17    2
    29    15    38    1
    30    16    18    2
    31    16    39    1
    32    17    20    1
    33    17    21    1
    34    18    19    1
    35    18    40    1
    36    19    22   ar
    37    19    23   ar
    38    20    43    1
    39    20    44    1
    40    20    45    1
    41    21    41    1
    42    21    42    1
    43    21    46    1
    44    22    24   ar
    45    22    47    1
    46    23    25   ar
    47    23    48    1
    48    24    26   ar
    49    24    49    1
    50    25    26   ar
    51    25    50    1
    52    26    51    1
