@<TRIPOS>MOLECULE
IMPHY008972
 20 19 0 0 0
SMALL
GASTEIGER

@<TRIPOS>ATOM
      1 O           3.7320    0.7500    0.0000 O.3     1  UNL1       -0.4648
      2 O           2.8660   -0.7500    0.0000 O.2     1  UNL1       -0.2512
      3 C           5.4641    0.7500    0.0000 C.3     1  UNL1       -0.0188
      4 C           6.3301    0.2500    0.0000 C.3     1  UNL1       -0.0528
      5 C           4.5981    0.2500    0.0000 C.3     1  UNL1        0.0924
      6 C           7.1962    0.7500    0.0000 C.3     1  UNL1       -0.0652
      7 C           2.8660    0.2500    0.0000 C.2     1  UNL1        0.3039
      8 C           2.0000    0.7500    0.0000 C.3     1  UNL1        0.0332
      9 H           5.8626    1.2250    0.0000 H       1  UNL1        0.0298
     10 H           5.0656    1.2250    0.0000 H       1  UNL1        0.0298
     11 H           5.9316   -0.2249    0.0000 H       1  UNL1        0.0264
     12 H           6.7287   -0.2249    0.0000 H       1  UNL1        0.0264
     13 H           4.1996   -0.2249    0.0000 H       1  UNL1        0.0697
     14 H           4.9966   -0.2249    0.0000 H       1  UNL1        0.0697
     15 H           7.5062    0.2131    0.0000 H       1  UNL1        0.0230
     16 H           7.7331    1.0600    0.0000 H       1  UNL1        0.0230
     17 H           6.8862    1.2869    0.0000 H       1  UNL1        0.0230
     18 H           2.3100    1.2869    0.0000 H       1  UNL1        0.0342
     19 H           1.4631    1.0600    0.0000 H       1  UNL1        0.0342
     20 H           1.6900    0.2131    0.0000 H       1  UNL1        0.0342
@<TRIPOS>BOND
     1     1     5    1
     2     1     7    1
     3     2     7    2
     4     3     4    1
     5     3     5    1
     6     3     9    1
     7     3    10    1
     8     4     6    1
     9     4    11    1
    10     4    12    1
    11     5    13    1
    12     5    14    1
    13     6    15    1
    14     6    16    1
    15     6    17    1
    16     7     8    1
    17     8    18    1
    18     8    19    1
    19     8    20    1
