@<TRIPOS>MOLECULE
IMPHY016075
 25 24 0 0 0
SMALL
GASTEIGER

@<TRIPOS>ATOM
      1 O           2.5369    1.0000    0.0000 O.2     1  UNL1       -0.5114
      2 C           5.1350    0.5000    0.0000 C.3     1  UNL1       -0.0462
      3 C           6.0010    1.0000    0.0000 C.3     1  UNL1       -0.0529
      4 C           4.2690    1.0000    0.0000 C.3     1  UNL1        0.0044
      5 C           6.8671    0.5000    0.0000 C.3     1  UNL1       -0.0559
      6 C           7.7331    1.0000    0.0000 C.3     1  UNL1       -0.0653
      7 C           3.4030    0.5000    0.0000 C.2     1  UNL1        0.0899
      8 C           3.4030   -0.5000    0.0000 C.2     1  UNL1       -0.0498
      9 C           2.5369   -1.0000    0.0000 C.3     1  UNL1       -0.0434
     10 H           4.7365    0.0251    0.0000 H       1  UNL1        0.0269
     11 H           5.5335    0.0251    0.0000 H       1  UNL1        0.0269
     12 H           6.3996    1.4750    0.0000 H       1  UNL1        0.0265
     13 H           5.6025    1.4750    0.0000 H       1  UNL1        0.0265
     14 H           4.6675    1.4750    0.0000 H       1  UNL1        0.0343
     15 H           3.8705    1.4750    0.0000 H       1  UNL1        0.0343
     16 H           6.4685    0.0251    0.0000 H       1  UNL1        0.0263
     17 H           7.2656    0.0251    0.0000 H       1  UNL1        0.0263
     18 H           8.0431    0.4631    0.0000 H       1  UNL1        0.0230
     19 H           8.2700    1.3100    0.0000 H       1  UNL1        0.0230
     20 H           7.4231    1.5369    0.0000 H       1  UNL1        0.0230
     21 H           3.9399   -0.8100    0.0000 H       1  UNL1        0.0602
     22 H           2.2269   -0.4631    0.0000 H       1  UNL1        0.0273
     23 H           2.0000   -1.3100    0.0000 H       1  UNL1        0.0273
     24 H           2.8469   -1.5369    0.0000 H       1  UNL1        0.0273
     25 H           2.0000    0.6900    0.0000 H       1  UNL1        0.2916
@<TRIPOS>BOND
     1     1     7    1
     2     1    25    1
     3     2     3    1
     4     2     4    1
     5     2    10    1
     6     2    11    1
     7     3     5    1
     8     3    12    1
     9     3    13    1
    10     4     7    1
    11     4    14    1
    12     4    15    1
    13     5     6    1
    14     5    16    1
    15     5    17    1
    16     6    18    1
    17     6    19    1
    18     6    20    1
    19     7     8    2
    20     8     9    1
    21     8    21    1
    22     9    22    1
    23     9    23    1
    24     9    24    1
