@<TRIPOS>MOLECULE
IMPHY016989
 24 24 0 0 0
SMALL
GASTEIGER

@<TRIPOS>ATOM
      1 C           2.8660    0.5670    0.0000 C.3     1  UNL1       -0.0349
      2 C           2.0000    0.0670    0.0000 C.3     1  UNL1       -0.0479
      3 C           3.7320    0.0670    0.0000 C.3     1  UNL1       -0.0479
      4 C           2.0000   -0.9330    0.0000 C.3     1  UNL1       -0.0526
      5 C           3.7320   -0.9330    0.0000 C.3     1  UNL1       -0.0526
      6 C           2.8660   -1.4330    0.0000 C.3     1  UNL1       -0.0530
      7 C           3.3660    1.4330    0.0000 C.3     1  UNL1       -0.0598
      8 C           2.3660    1.4330    0.0000 C.3     1  UNL1       -0.0598
      9 H           1.7880    0.6496    0.0000 H       1  UNL1        0.0270
     10 H           1.3894   -0.0407    0.0000 H       1  UNL1        0.0270
     11 H           4.3426   -0.0407    0.0000 H       1  UNL1        0.0270
     12 H           3.9441    0.6496    0.0000 H       1  UNL1        0.0270
     13 H           1.3894   -0.8254    0.0000 H       1  UNL1        0.0265
     14 H           1.7880   -1.5156    0.0000 H       1  UNL1        0.0265
     15 H           3.9441   -1.5156    0.0000 H       1  UNL1        0.0265
     16 H           4.3426   -0.8254    0.0000 H       1  UNL1        0.0265
     17 H           2.4675   -1.9080    0.0000 H       1  UNL1        0.0265
     18 H           3.2646   -1.9080    0.0000 H       1  UNL1        0.0265
     19 H           3.9030    1.1230    0.0000 H       1  UNL1        0.0235
     20 H           3.6760    1.9700    0.0000 H       1  UNL1        0.0235
     21 H           2.8291    1.7430    0.0000 H       1  UNL1        0.0235
     22 H           2.9030    1.7430    0.0000 H       1  UNL1        0.0235
     23 H           2.0560    1.9700    0.0000 H       1  UNL1        0.0235
     24 H           1.8291    1.1230    0.0000 H       1  UNL1        0.0235
@<TRIPOS>BOND
     1     1     2    1
     2     1     3    1
     3     1     7    1
     4     1     8    1
     5     2     4    1
     6     2     9    1
     7     2    10    1
     8     3     5    1
     9     3    11    1
    10     3    12    1
    11     4     6    1
    12     4    13    1
    13     4    14    1
    14     5     6    1
    15     5    15    1
    16     5    16    1
    17     6    17    1
    18     6    18    1
    19     7    19    1
    20     7    20    1
    21     7    21    1
    22     8    22    1
    23     8    23    1
    24     8    24    1
