@<TRIPOS>MOLECULE
IMPHY002282
 152 156 0 0 0
SMALL
GASTEIGER

@<TRIPOS>ATOM
      1 O           9.4651   -4.6550    0.0000 O.3     1  UNL1       -0.3401
      2 O           7.7331   -4.6550    0.0000 O.3     1  UNL1       -0.3405
      3 O          11.1972   -1.6550    0.0000 O.3     1  UNL1       -0.3401
      4 O           9.4651   -1.6550    0.0000 O.3     1  UNL1       -0.3431
      5 O           6.0010   -6.6550    0.0000 O.3     1  UNL1       -0.3401
      6 O          11.1972    1.3450    0.0000 O.3     1  UNL1       -0.3431
      7 O           7.7331   -7.6550    0.0000 O.3     1  UNL1       -0.3864
      8 O           6.8671   -8.1550    0.0000 O.3     1  UNL1       -0.3431
      9 O          11.1972   -3.6550    0.0000 O.3     1  UNL1       -0.3841
     10 O           9.4651   -6.6550    0.0000 O.3     1  UNL1       -0.3841
     11 O           7.7331   -3.6550    0.0000 O.3     1  UNL1       -0.3866
     12 O           6.0010   -3.6550    0.0000 O.3     1  UNL1       -0.3461
     13 O          12.9292    1.3450    0.0000 O.3     1  UNL1       -0.3454
     14 O           9.4651   -0.6550    0.0000 O.3     1  UNL1       -0.3866
     15 O          12.9292   -0.6550    0.0000 O.3     1  UNL1       -0.3841
     16 O           4.2690   -3.6550    0.0000 O.3     1  UNL1       -0.3431
     17 O           4.2690   -7.6550    0.0000 O.3     1  UNL1       -0.3841
     18 O           4.2690   -9.6550    0.0000 O.3     1  UNL1       -0.3864
     19 O           6.0010  -10.6550    0.0000 O.3     1  UNL1       -0.3866
     20 O           6.0010   -1.6550    0.0000 O.3     1  UNL1       -0.3841
     21 O           4.2690   -0.6550    0.0000 O.3     1  UNL1       -0.3864
     22 O           2.5369   -1.6550    0.0000 O.3     1  UNL1       -0.3866
     23 O          18.1254   10.3450    0.0000 O.3     1  UNL1       -0.4806
     24 O          16.3933   10.3450    0.0000 O.2     1  UNL1       -0.2510
     25 C           9.4651   -3.6550    0.0000 C.3     1  UNL1        0.1205
     26 C           6.8671   -6.1550    0.0000 C.3     1  UNL1        0.1184
     27 C           7.7331   -6.6550    0.0000 C.3     1  UNL1        0.1144
     28 C           6.8671   -5.1550    0.0000 C.3     1  UNL1        0.1137
     29 C           8.5991   -5.1550    0.0000 C.3     1  UNL1        0.1884
     30 C          10.3312   -3.1550    0.0000 C.3     1  UNL1        0.1345
     31 C           8.5991   -6.1550    0.0000 C.3     1  UNL1        0.1341
     32 C           8.5991   -3.1550    0.0000 C.3     1  UNL1        0.1098
     33 C          10.3312   -2.1550    0.0000 C.3     1  UNL1        0.1883
     34 C          11.1972   -0.6550    0.0000 C.3     1  UNL1        0.1205
     35 C           8.5991   -2.1550    0.0000 C.3     1  UNL1        0.0873
     36 C          10.3312   -0.1550    0.0000 C.3     1  UNL1        0.1098
     37 C          12.0632   -0.1550    0.0000 C.3     1  UNL1        0.1345
     38 C           6.0010   -4.6550    0.0000 C.3     1  UNL1        0.0796
     39 C           6.0010   -7.6550    0.0000 C.3     1  UNL1        0.1883
     40 C          10.3312    0.8450    0.0000 C.3     1  UNL1        0.0873
     41 C          12.0632    0.8450    0.0000 C.3     1  UNL1        0.1881
     42 C           5.1350   -8.1550    0.0000 C.3     1  UNL1        0.1341
     43 C           5.1350   -9.1550    0.0000 C.3     1  UNL1        0.1140
     44 C           6.0010   -9.6550    0.0000 C.3     1  UNL1        0.1095
     45 C           7.7331   -1.6550    0.0000 C.3     1  UNL1       -0.0361
     46 C           6.8671   -9.1550    0.0000 C.3     1  UNL1        0.0873
     47 C           5.1350   -3.1550    0.0000 C.3     1  UNL1        0.1879
     48 C           5.1350   -2.1550    0.0000 C.3     1  UNL1        0.1341
     49 C          12.9292    2.3450    0.0000 C.3     1  UNL1        0.0618
     50 C           9.4651    1.3450    0.0000 C.3     1  UNL1       -0.0361
     51 C           4.2690   -1.6550    0.0000 C.3     1  UNL1        0.1140
     52 C           3.4030   -2.1550    0.0000 C.3     1  UNL1        0.1095
     53 C           3.4030   -3.1550    0.0000 C.3     1  UNL1        0.0873
     54 C          13.7953    2.8450    0.0000 C.3     1  UNL1       -0.0265
     55 C           7.7331   -9.6550    0.0000 C.3     1  UNL1       -0.0361
     56 C          12.0632    2.8450    0.0000 C.3     1  UNL1       -0.0265
     57 C          13.7953    3.8450    0.0000 C.3     1  UNL1       -0.0507
     58 C          12.0632    3.8450    0.0000 C.3     1  UNL1       -0.0507
     59 C           2.5369   -3.6550    0.0000 C.3     1  UNL1       -0.0361
     60 C          14.6613    4.3450    0.0000 C.3     1  UNL1       -0.0530
     61 C          11.1972    4.3450    0.0000 C.3     1  UNL1       -0.0532
     62 C          14.6613    5.3450    0.0000 C.3     1  UNL1       -0.0531
     63 C          11.1972    5.3450    0.0000 C.3     1  UNL1       -0.0559
     64 C          15.5273    5.8450    0.0000 C.3     1  UNL1       -0.0531
     65 C          15.5273    6.8450    0.0000 C.3     1  UNL1       -0.0530
     66 C          10.3312    5.8450    0.0000 C.3     1  UNL1       -0.0653
     67 C          16.3933    7.3450    0.0000 C.3     1  UNL1       -0.0526
     68 C          16.3933    8.3450    0.0000 C.3     1  UNL1       -0.0430
     69 C          17.2594    8.8450    0.0000 C.3     1  UNL1        0.0448
     70 C          17.2594    9.8450    0.0000 C.2     1  UNL1        0.3047
     71 H          10.0021   -3.9650    0.0000 H       1  UNL1        0.0651
     72 H           6.8671   -6.7750    0.0000 H       1  UNL1        0.0651
     73 H           8.2700   -6.9650    0.0000 H       1  UNL1        0.0648
     74 H           6.8671   -4.5350    0.0000 H       1  UNL1        0.0647
     75 H           8.5991   -4.5350    0.0000 H       1  UNL1        0.0938
     76 H          10.8681   -2.8450    0.0000 H       1  UNL1        0.0671
     77 H           9.1360   -5.8450    0.0000 H       1  UNL1        0.0671
     78 H           8.5991   -3.7750    0.0000 H       1  UNL1        0.0646
     79 H          10.3312   -1.5350    0.0000 H       1  UNL1        0.0938
     80 H          10.6603   -0.9650    0.0000 H       1  UNL1        0.0651
     81 H           8.5991   -1.5350    0.0000 H       1  UNL1        0.0621
     82 H           9.7942    0.1550    0.0000 H       1  UNL1        0.0646
     83 H          12.6002    0.1550    0.0000 H       1  UNL1        0.0671
     84 H           5.3905   -4.5473    0.0000 H       1  UNL1        0.0587
     85 H           5.7890   -5.2376    0.0000 H       1  UNL1        0.0587
     86 H           5.4641   -7.3450    0.0000 H       1  UNL1        0.0938
     87 H          10.3312    1.4650    0.0000 H       1  UNL1        0.0621
     88 H          12.0632    1.4650    0.0000 H       1  UNL1        0.0937
     89 H           5.6720   -8.4650    0.0000 H       1  UNL1        0.0671
     90 H           5.1350   -9.7750    0.0000 H       1  UNL1        0.0648
     91 H           6.5380   -9.9650    0.0000 H       1  UNL1        0.0646
     92 H           8.0431   -1.1181    0.0000 H       1  UNL1        0.0255
     93 H           7.1962   -1.3450    0.0000 H       1  UNL1        0.0255
     94 H           7.4231   -2.1919    0.0000 H       1  UNL1        0.0255
     95 H           7.4040   -8.8450    0.0000 H       1  UNL1        0.0621
     96 H           5.6720   -2.8450    0.0000 H       1  UNL1        0.0937
     97 H           8.2700   -7.9650    0.0000 H       1  UNL1        0.2100
     98 H          11.7341   -3.3450    0.0000 H       1  UNL1        0.2101
     99 H          10.0021   -6.3450    0.0000 H       1  UNL1        0.2101
    100 H           7.1962   -3.3450    0.0000 H       1  UNL1        0.2100
    101 H           5.1350   -1.5350    0.0000 H       1  UNL1        0.0671
    102 H          12.3923    2.0350    0.0000 H       1  UNL1        0.0597
    103 H           9.7751    1.8819    0.0000 H       1  UNL1        0.0255
    104 H           8.9282    1.6550    0.0000 H       1  UNL1        0.0255
    105 H           9.1551    0.8081    0.0000 H       1  UNL1        0.0255
    106 H           3.7320   -1.3450    0.0000 H       1  UNL1        0.0648
    107 H           3.9650   -1.5350    0.0000 H       1  UNL1        0.0646
    108 H           3.4030   -3.7750    0.0000 H       1  UNL1        0.0621
    109 H           8.9282   -0.3450    0.0000 H       1  UNL1        0.2100
    110 H          13.4662   -0.3450    0.0000 H       1  UNL1        0.2101
    111 H          14.0073    2.2624    0.0000 H       1  UNL1        0.0290
    112 H          14.4058    2.9527    0.0000 H       1  UNL1        0.0290
    113 H           7.4231  -10.1919    0.0000 H       1  UNL1        0.0255
    114 H           8.2700   -9.9650    0.0000 H       1  UNL1        0.0255
    115 H           8.0431   -9.1181    0.0000 H       1  UNL1        0.0255
    116 H          11.4526    2.9527    0.0000 H       1  UNL1        0.0290
    117 H          11.8512    2.2624    0.0000 H       1  UNL1        0.0290
    118 H           3.7320   -7.9650    0.0000 H       1  UNL1        0.2101
    119 H           4.2690  -10.2750    0.0000 H       1  UNL1        0.2100
    120 H          13.5832    4.4276    0.0000 H       1  UNL1        0.0266
    121 H          13.1847    3.7373    0.0000 H       1  UNL1        0.0266
    122 H           6.5380  -10.9650    0.0000 H       1  UNL1        0.2100
    123 H          12.6738    3.7373    0.0000 H       1  UNL1        0.0266
    124 H          12.2753    4.4276    0.0000 H       1  UNL1        0.0266
    125 H           2.2269   -3.1181    0.0000 H       1  UNL1        0.0255
    126 H           2.0000   -3.9650    0.0000 H       1  UNL1        0.0255
    127 H           2.8469   -4.1919    0.0000 H       1  UNL1        0.0255
    128 H          14.8733    3.7624    0.0000 H       1  UNL1        0.0265
    129 H          15.2719    4.4527    0.0000 H       1  UNL1        0.0265
    130 H           6.0010   -1.0350    0.0000 H       1  UNL1        0.2101
    131 H          10.5866    4.4527    0.0000 H       1  UNL1        0.0265
    132 H          10.9851    3.7624    0.0000 H       1  UNL1        0.0265
    133 H           3.7320   -0.3450    0.0000 H       1  UNL1        0.2100
    134 H           2.0000   -1.9650    0.0000 H       1  UNL1        0.2100
    135 H          14.4492    5.9276    0.0000 H       1  UNL1        0.0265
    136 H          14.0507    5.2373    0.0000 H       1  UNL1        0.0265
    137 H          11.8078    5.2373    0.0000 H       1  UNL1        0.0263
    138 H          11.4092    5.9276    0.0000 H       1  UNL1        0.0263
    139 H          15.7394    5.2624    0.0000 H       1  UNL1        0.0265
    140 H          16.1379    5.9527    0.0000 H       1  UNL1        0.0265
    141 H          15.3153    7.4276    0.0000 H       1  UNL1        0.0265
    142 H          14.9167    6.7373    0.0000 H       1  UNL1        0.0265
    143 H          10.6412    6.3819    0.0000 H       1  UNL1        0.0230
    144 H           9.7942    6.1550    0.0000 H       1  UNL1        0.0230
    145 H          10.0212    5.3081    0.0000 H       1  UNL1        0.0230
    146 H          16.6054    6.7624    0.0000 H       1  UNL1        0.0265
    147 H          17.0039    7.4527    0.0000 H       1  UNL1        0.0265
    148 H          16.1813    8.9276    0.0000 H       1  UNL1        0.0270
    149 H          15.7828    8.2373    0.0000 H       1  UNL1        0.0270
    150 H          17.4714    8.2624    0.0000 H       1  UNL1        0.0377
    151 H          17.8699    8.9527    0.0000 H       1  UNL1        0.0377
    152 H          18.1254   10.9650    0.0000 H       1  UNL1        0.2951
@<TRIPOS>BOND
     1    25     1    1
     2    29     1    1
     3     2    28    1
     4     2    29    1
     5    33     3    1
     6    34     3    1
     7     4    33    1
     8     4    35    1
     9    26     5    1
    10    39     5    1
    11     6    40    1
    12     6    41    1
    13    27     7    1
    14     7    97    1
    15     8    39    1
    16     8    46    1
    17    30     9    1
    18     9    98    1
    19    31    10    1
    20    10    99    1
    21    32    11    1
    22    11   100    1
    23    12    38    1
    24    47    12    1
    25    41    13    1
    26    13    49    1
    27    36    14    1
    28    14   109    1
    29    37    15    1
    30    15   110    1
    31    16    47    1
    32    16    53    1
    33    17    42    1
    34    17   118    1
    35    43    18    1
    36    18   119    1
    37    44    19    1
    38    19   122    1
    39    20    48    1
    40    20   130    1
    41    51    21    1
    42    21   133    1
    43    52    22    1
    44    22   134    1
    45    23    70    1
    46    23   152    1
    47    24    70    2
    48    25    30    1
    49    25    32    1
    50    25    71    1
    51    26    27    1
    52    26    28    1
    53    26    72    1
    54    27    31    1
    55    27    73    1
    56    28    38    1
    57    28    74    1
    58    29    31    1
    59    29    75    1
    60    30    33    1
    61    30    76    1
    62    31    77    1
    63    32    35    1
    64    32    78    1
    65    33    79    1
    66    34    36    1
    67    34    37    1
    68    34    80    1
    69    35    45    1
    70    35    81    1
    71    36    40    1
    72    36    82    1
    73    37    41    1
    74    37    83    1
    75    38    84    1
    76    38    85    1
    77    39    42    1
    78    39    86    1
    79    40    50    1
    80    40    87    1
    81    41    88    1
    82    42    43    1
    83    42    89    1
    84    43    44    1
    85    43    90    1
    86    44    46    1
    87    44    91    1
    88    45    92    1
    89    45    93    1
    90    45    94    1
    91    46    55    1
    92    46    95    1
    93    47    48    1
    94    47    96    1
    95    48    51    1
    96    48   101    1
    97    49    54    1
    98    49    56    1
    99    49   102    1
   100    50   103    1
   101    50   104    1
   102    50   105    1
   103    51    52    1
   104    51   106    1
   105    52    53    1
   106    52   107    1
   107    53    59    1
   108    53   108    1
   109    54    57    1
   110    54   111    1
   111    54   112    1
   112    55   113    1
   113    55   114    1
   114    55   115    1
   115    56    58    1
   116    56   116    1
   117    56   117    1
   118    57    60    1
   119    57   120    1
   120    57   121    1
   121    58    61    1
   122    58   123    1
   123    58   124    1
   124    59   125    1
   125    59   126    1
   126    59   127    1
   127    60    62    1
   128    60   128    1
   129    60   129    1
   130    61    63    1
   131    61   131    1
   132    61   132    1
   133    62    64    1
   134    62   135    1
   135    62   136    1
   136    63    66    1
   137    63   137    1
   138    63   138    1
   139    64    65    1
   140    64   139    1
   141    64   140    1
   142    65    67    1
   143    65   141    1
   144    65   142    1
   145    66   143    1
   146    66   144    1
   147    66   145    1
   148    67    68    1
   149    67   146    1
   150    67   147    1
   151    68    69    1
   152    68   148    1
   153    68   149    1
   154    69    70    1
   155    69   150    1
   156    69   151    1
