@<TRIPOS>MOLECULE
IMPHY002519
 48 49 0 0 0
SMALL
GASTEIGER

@<TRIPOS>ATOM
      1 O           4.6660    2.0000    0.0000 O.2     1  UNL1       -0.2872
      2 N           4.6660   -1.0000    0.0000 N.ar    1  UNL1       -0.3466
      3 C           8.1301   -1.0000    0.0000 C.3     1  UNL1       -0.0527
      4 C           8.9962   -0.5000    0.0000 C.3     1  UNL1       -0.0530
      5 C           7.2641   -0.5000    0.0000 C.3     1  UNL1       -0.0477
      6 C           9.8622   -1.0000    0.0000 C.3     1  UNL1       -0.0531
      7 C           6.3981   -1.0000    0.0000 C.3     1  UNL1       -0.0122
      8 C          10.7282   -0.5000    0.0000 C.3     1  UNL1       -0.0531
      9 C           5.5321   -0.5000    0.0000 C.ar    1  UNL1        0.0225
     10 C          11.5942   -1.0000    0.0000 C.3     1  UNL1       -0.0533
     11 C          12.4603   -0.5000    0.0000 C.3     1  UNL1       -0.0559
     12 C           3.8000   -0.5000    0.0000 C.ar    1  UNL1        0.0527
     13 C           5.5321    0.5000    0.0000 C.ar    1  UNL1        0.0051
     14 C           3.8000    0.5000    0.0000 C.ar    1  UNL1        0.0452
     15 C           4.6660    1.0000    0.0000 C.ar    1  UNL1        0.1897
     16 C           4.6660   -2.0000    0.0000 C.3     1  UNL1        0.0121
     17 C          13.3263   -1.0000    0.0000 C.3     1  UNL1       -0.0653
     18 C           2.9061   -1.0347    0.0000 C.ar    1  UNL1       -0.0375
     19 C           2.9061    1.0347    0.0000 C.ar    1  UNL1       -0.0490
     20 C           2.0000   -0.5208    0.0000 C.ar    1  UNL1       -0.0598
     21 C           2.0000    0.5208    0.0000 C.ar    1  UNL1       -0.0610
     22 H           7.7316   -1.4750    0.0000 H       1  UNL1        0.0265
     23 H           8.5287   -1.4750    0.0000 H       1  UNL1        0.0265
     24 H           9.3947   -0.0251    0.0000 H       1  UNL1        0.0265
     25 H           8.5976   -0.0251    0.0000 H       1  UNL1        0.0265
     26 H           7.6626   -0.0251    0.0000 H       1  UNL1        0.0269
     27 H           6.8656   -0.0251    0.0000 H       1  UNL1        0.0269
     28 H           9.4637   -1.4750    0.0000 H       1  UNL1        0.0265
     29 H          10.2607   -1.4750    0.0000 H       1  UNL1        0.0265
     30 H           5.9996   -1.4750    0.0000 H       1  UNL1        0.0328
     31 H           6.7966   -1.4750    0.0000 H       1  UNL1        0.0328
     32 H          11.1267   -0.0251    0.0000 H       1  UNL1        0.0265
     33 H          10.3297   -0.0251    0.0000 H       1  UNL1        0.0265
     34 H          11.1957   -1.4750    0.0000 H       1  UNL1        0.0265
     35 H          11.9928   -1.4750    0.0000 H       1  UNL1        0.0265
     36 H          12.8588   -0.0251    0.0000 H       1  UNL1        0.0263
     37 H          12.0617   -0.0251    0.0000 H       1  UNL1        0.0263
     38 H           6.0690    0.8100    0.0000 H       1  UNL1        0.0673
     39 H           4.0460   -2.0000    0.0000 H       1  UNL1        0.0456
     40 H           4.6660   -2.6200    0.0000 H       1  UNL1        0.0456
     41 H           5.2860   -2.0000    0.0000 H       1  UNL1        0.0456
     42 H          13.0163   -1.5369    0.0000 H       1  UNL1        0.0230
     43 H          13.8632   -1.3100    0.0000 H       1  UNL1        0.0230
     44 H          13.6363   -0.4631    0.0000 H       1  UNL1        0.0230
     45 H           2.9132   -1.6546    0.0000 H       1  UNL1        0.0638
     46 H           2.9132    1.6546    0.0000 H       1  UNL1        0.0625
     47 H           1.4643   -0.8329    0.0000 H       1  UNL1        0.0618
     48 H           1.4643    0.8329    0.0000 H       1  UNL1        0.0618
@<TRIPOS>BOND
     1     1    15    2
     2     2     9   ar
     3     2    12   ar
     4     2    16    1
     5     3     4    1
     6     3     5    1
     7     3    22    1
     8     3    23    1
     9     4     6    1
    10     4    24    1
    11     4    25    1
    12     5     7    1
    13     5    26    1
    14     5    27    1
    15     6     8    1
    16     6    28    1
    17     6    29    1
    18     7     9    1
    19     7    30    1
    20     7    31    1
    21     8    10    1
    22     8    32    1
    23     8    33    1
    24     9    13   ar
    25    10    11    1
    26    10    34    1
    27    10    35    1
    28    11    17    1
    29    11    36    1
    30    11    37    1
    31    12    14   ar
    32    12    18   ar
    33    13    15   ar
    34    13    38    1
    35    14    15   ar
    36    14    19   ar
    37    16    39    1
    38    16    40    1
    39    16    41    1
    40    17    42    1
    41    17    43    1
    42    17    44    1
    43    18    20   ar
    44    18    45    1
    45    19    21   ar
    46    19    46    1
    47    20    21   ar
    48    20    47    1
    49    21    48    1
