@<TRIPOS>MOLECULE
IMPHY013301
 36 35 0 0 0
SMALL
GASTEIGER

@<TRIPOS>ATOM
      1 S           6.8671   -1.4400    0.0000 S.3     1  UNK1       -0.1759
      2 O           6.0010   -0.9400    0.0000 O.2     1  UNK1       -0.2758
      3 O           8.5991    1.5600    0.0000 O.2     1  UNK1       -0.2737
      4 O           2.5369    2.0600    0.0000 O.co2   1  UNK1       -0.5442
      5 O           4.2690    2.0600    0.0000 O.co2   1  UNK1       -0.5442
      6 O          12.0632    0.5600    0.0000 O.co2   2  GLY2       -0.5482
      7 OXT        11.1972   -0.9400    0.0000 O.co2   2  GLY2       -0.5482
      8 N           6.8671    0.5600    0.0000 N.am    1  UNK1       -0.3033
      9 N           2.5369    0.0600    0.0000 N.4     1  UNK1        0.2249
     10 N           9.4651    0.0600    0.0000 N.am    2  GLY2       -0.3085
     11 C           4.2690    0.0600    0.0000 C.3     1  UNK1        0.0039
     12 C           3.4030    0.5600    0.0000 C.3     1  UNK1        0.0164
     13 C           5.1350    0.5600    0.0000 C.3     1  UNK1        0.0294
     14 C           7.7331    0.0600    0.0000 C.3     1  UNK1        0.1081
     15 C           6.0010    0.0600    0.0000 C.2     1  UNK1        0.2138
     16 C           7.7331   -0.9400    0.0000 C.3     1  UNK1        0.0177
     17 C           8.5991    0.5600    0.0000 C.2     1  UNK1        0.2344
     18 C           3.4030    1.5600    0.0000 C.2     1  UNK1        0.0894
     19 CA         10.3312    0.5600    0.0000 C.3     2  GLY2        0.0512
     20 C          11.1972    0.0600    0.0000 C.2     2  GLY2        0.0588
     21 H           3.8705   -0.4149    0.0000 H       1  UNK1        0.0328
     22 H           4.6675   -0.4149    0.0000 H       1  UNK1        0.0328
     23 H           3.4030   -0.0600    0.0000 H       1  UNK1        0.0915
     24 H           5.5335    1.0350    0.0000 H       1  UNK1        0.0360
     25 H           4.7365    1.0350    0.0000 H       1  UNK1        0.0360
     26 H           7.7331    0.6800    0.0000 H       1  UNK1        0.0603
     27 H           6.8671    1.1800    0.0000 H       1  UNK1        0.1495
     28 H           2.0000   -0.2500    0.0000 H       1  UNK1        0.2001
     29 H           2.2269    0.5969    0.0000 H       1  UNK1        0.2001
     30 H           2.8469   -0.4769    0.0000 H       1  UNK1        0.2001
     31 H           7.9451   -1.5226    0.0000 H       1  UNK1        0.0397
     32 H           8.3437   -0.8323    0.0000 H       1  UNK1        0.0397
     33 H           9.4651   -0.5600    0.0000 H       2  GLY2        0.1491
     34 HA1        10.7297    1.0350    0.0000 H       2  GLY2        0.0523
     35 HA2         9.9326    1.0350    0.0000 H       2  GLY2        0.0523
     36 H           6.8671   -2.0600    0.0000 H       1  UNK1        0.1017
@<TRIPOS>UNITY_ATOM_ATTR
4 1
charge -1
6 1
charge -1
9 1
charge 1
@<TRIPOS>BOND
     1     1    16    1
     2     1    36    1
     3     2    15    2
     4     3    17    2
     5     4    18   ar
     6     5    18   ar
     7     6    20   ar
     8     7    20   ar
     9     8    14    1
    10     8    15   am
    11     8    27    1
    12     9    12    1
    13     9    28    1
    14     9    29    1
    15     9    30    1
    16    10    17   am
    17    10    19    1
    18    10    33    1
    19    11    12    1
    20    11    13    1
    21    11    21    1
    22    11    22    1
    23    12    18    1
    24    12    23    1
    25    13    15    1
    26    13    24    1
    27    13    25    1
    28    14    16    1
    29    14    17    1
    30    14    26    1
    31    16    31    1
    32    16    32    1
    33    19    20    1
    34    19    34    1
    35    19    35    1
