@<TRIPOS>MOLECULE
IMPHY015523
 16 15 0 0 0
SMALL
GASTEIGER

@<TRIPOS>ATOM
      1 N           5.4641    0.0600    0.0000 N.3     1  UNL1       -0.3300
      2 C           3.7320    0.0600    0.0000 C.3     1  UNL1       -0.0409
      3 C           2.8660    0.5600    0.0000 C.3     1  UNL1       -0.0548
      4 C           4.5981    0.5600    0.0000 C.3     1  UNL1       -0.0069
      5 C           2.0000    0.0600    0.0000 C.3     1  UNL1       -0.0652
      6 H           3.3335   -0.4149    0.0000 H       1  UNL1        0.0277
      7 H           4.1306   -0.4149    0.0000 H       1  UNL1        0.0277
      8 H           3.2646    1.0350    0.0000 H       1  UNL1        0.0263
      9 H           2.4675    1.0350    0.0000 H       1  UNL1        0.0263
     10 H           4.9966    1.0350    0.0000 H       1  UNL1        0.0422
     11 H           4.1996    1.0350    0.0000 H       1  UNL1        0.0422
     12 H           1.6900    0.5969    0.0000 H       1  UNL1        0.0230
     13 H           1.4631   -0.2500    0.0000 H       1  UNL1        0.0230
     14 H           2.3100   -0.4769    0.0000 H       1  UNL1        0.0230
     15 H           6.0010    0.3700    0.0000 H       1  UNL1        0.1182
     16 H           5.4641   -0.5600    0.0000 H       1  UNL1        0.1182
@<TRIPOS>BOND
     1     1     4    1
     2     1    15    1
     3     1    16    1
     4     2     3    1
     5     2     4    1
     6     2     6    1
     7     2     7    1
     8     3     5    1
     9     3     8    1
    10     3     9    1
    11     4    10    1
    12     4    11    1
    13     5    12    1
    14     5    13    1
    15     5    14    1
