@<TRIPOS>MOLECULE
IMPHY002656
 37 38 0 0 0
SMALL
GASTEIGER

@<TRIPOS>ATOM
      1 O           5.8008    0.7080    0.0000 O.3     1  UNL1       -0.4533
      2 O           6.0796    2.4681    0.0000 O.2     1  UNL1       -0.2453
      3 C           4.7839   -0.8579    0.0000 C.3     1  UNL1        0.0207
      4 C           4.9918    0.1202    0.0000 C.3     1  UNL1        0.1287
      5 C           3.8680   -1.2754    0.0000 C.3     1  UNL1       -0.0392
      6 C           3.1249   -0.6062    0.0000 C.3     1  UNL1       -0.0313
      7 C           4.1828    0.7080    0.0000 C.2     1  UNL1       -0.0334
      8 C           5.5678   -1.4788    0.0000 C.2     1  UNL1       -0.0728
      9 C           4.4918    1.6591    0.0000 C.2     1  UNL1        0.0364
     10 C           3.7486    2.3282    0.0000 C.3     1  UNL1       -0.0177
     11 C           3.3328    0.3719    0.0000 C.2     1  UNL1       -0.0765
     12 C           2.7976    2.0192    0.0000 C.3     1  UNL1       -0.0303
     13 C           5.4918    1.6591    0.0000 C.2     1  UNL1        0.3355
     14 C           2.5896    1.0410    0.0000 C.2     1  UNL1       -0.0847
     15 C           5.4220   -2.4681    0.0000 C.3     1  UNL1       -0.0436
     16 C           4.7014    1.0996    0.0000 C.3     1  UNL1       -0.0438
     17 C           6.4974   -1.1103    0.0000 C.2     1  UNL1       -0.0993
     18 H           4.7090   -1.4734    0.0000 H       1  UNL1        0.0385
     19 H           5.7046   -0.3427    0.0000 H       1  UNL1        0.0785
     20 H           3.3943   -1.6753    0.0000 H       1  UNL1        0.0275
     21 H           4.1997   -1.7992    0.0000 H       1  UNL1        0.0275
     22 H           2.5500   -0.3740    0.0000 H       1  UNL1        0.0310
     23 H           2.7963   -1.1320    0.0000 H       1  UNL1        0.0310
     24 H           3.5931    0.5164    0.0000 H       1  UNL1        0.0613
     25 H           4.2372    2.7099    0.0000 H       1  UNL1        0.0318
     26 H           3.4576    2.8756    0.0000 H       1  UNL1        0.0318
     27 H           2.7113    2.6332    0.0000 H       1  UNL1        0.0311
     28 H           2.1779    2.0408    0.0000 H       1  UNL1        0.0311
     29 H           2.0000    0.8495    0.0000 H       1  UNL1        0.0572
     30 H           4.8086   -2.3777    0.0000 H       1  UNL1        0.0274
     31 H           5.3316   -3.0815    0.0000 H       1  UNL1        0.0274
     32 H           6.0354   -2.5585    0.0000 H       1  UNL1        0.0274
     33 H           4.9924    0.5522    0.0000 H       1  UNL1        0.0274
     34 H           5.2488    1.3907    0.0000 H       1  UNL1        0.0274
     35 H           4.4103    1.6470    0.0000 H       1  UNL1        0.0274
     36 H           6.9834   -1.4953    0.0000 H       1  UNL1        0.0534
     37 H           6.5878   -0.4970    0.0000 H       1  UNL1        0.0534
@<TRIPOS>BOND
     1     1     4    1
     2     1    13    1
     3     2    13    2
     4     3     4    1
     5     3     5    1
     6     3     8    1
     7     3    18    1
     8     4     7    1
     9     4    19    1
    10     5     6    1
    11     5    20    1
    12     5    21    1
    13     6    11    1
    14     6    22    1
    15     6    23    1
    16     7     9    2
    17     7    24    1
    18     8    15    1
    19     8    17    2
    20     9    10    1
    21     9    13    1
    22    10    12    1
    23    10    25    1
    24    10    26    1
    25    11    14    2
    26    11    16    1
    27    12    14    1
    28    12    27    1
    29    12    28    1
    30    14    29    1
    31    15    30    1
    32    15    31    1
    33    15    32    1
    34    16    33    1
    35    16    34    1
    36    16    35    1
    37    17    36    1
    38    17    37    1
