@<TRIPOS>MOLECULE
IMPHY009677
 39 40 0 0 0
SMALL
GASTEIGER

@<TRIPOS>ATOM
      1 C           5.4641   -0.7673    0.0000 C.3     1  UNL1       -0.0218
      2 C           5.4641    0.2327    0.0000 C.3     1  UNL1        0.0036
      3 C           6.3580   -1.3020    0.0000 C.3     1  UNL1       -0.0465
      4 C           4.5981   -1.2673    0.0000 C.3     1  UNL1       -0.0431
      5 C           7.2641   -0.7881    0.0000 C.3     1  UNL1       -0.0488
      6 C           3.7320   -0.7673    0.0000 C.3     1  UNL1       -0.0310
      7 C           6.3580    0.7674    0.0000 C.2     1  UNL1       -0.0693
      8 C           5.4641   -1.7673    0.0000 C.3     1  UNL1       -0.0587
      9 C           4.5981    0.7327    0.0000 C.2     1  UNL1       -0.0769
     10 C           7.2641    0.2535    0.0000 C.3     1  UNL1       -0.0314
     11 C           3.7320    0.2327    0.0000 C.2     1  UNL1       -0.0703
     12 C           2.8660    0.7327    0.0000 C.3     1  UNL1       -0.0255
     13 C           6.3465    1.7673    0.0000 C.2     1  UNL1       -0.0989
     14 C           2.0000    0.2327    0.0000 C.3     1  UNL1       -0.0590
     15 C           2.8660    1.7327    0.0000 C.3     1  UNL1       -0.0590
     16 H           5.4593    0.8527    0.0000 H       1  UNL1        0.0393
     17 H           4.1996   -1.7422    0.0000 H       1  UNL1        0.0274
     18 H           4.9966   -1.7422    0.0000 H       1  UNL1        0.0274
     19 H           5.9534   -1.7718    0.0000 H       1  UNL1        0.0271
     20 H           6.7517   -1.7810    0.0000 H       1  UNL1        0.0271
     21 H           7.4732   -1.3718    0.0000 H       1  UNL1        0.0268
     22 H           7.8750   -0.6820    0.0000 H       1  UNL1        0.0268
     23 H           3.1215   -0.6596    0.0000 H       1  UNL1        0.0310
     24 H           3.5200   -1.3499    0.0000 H       1  UNL1        0.0310
     25 H           4.8441   -1.7673    0.0000 H       1  UNL1        0.0235
     26 H           5.4641   -2.3873    0.0000 H       1  UNL1        0.0235
     27 H           6.0841   -1.7673    0.0000 H       1  UNL1        0.0235
     28 H           4.5981    1.3527    0.0000 H       1  UNL1        0.0578
     29 H           7.8750    0.1474    0.0000 H       1  UNL1        0.0310
     30 H           7.4732    0.8372    0.0000 H       1  UNL1        0.0310
     31 H           2.8660    0.1127    0.0000 H       1  UNL1        0.0340
     32 H           6.8798    2.0835    0.0000 H       1  UNL1        0.0535
     33 H           5.8060    2.0711    0.0000 H       1  UNL1        0.0535
     34 H           1.6900    0.7696    0.0000 H       1  UNL1        0.0235
     35 H           1.4631   -0.0773    0.0000 H       1  UNL1        0.0235
     36 H           2.3100   -0.3042    0.0000 H       1  UNL1        0.0235
     37 H           3.4860    1.7327    0.0000 H       1  UNL1        0.0235
     38 H           2.8660    2.3527    0.0000 H       1  UNL1        0.0235
     39 H           2.2460    1.7327    0.0000 H       1  UNL1        0.0235
@<TRIPOS>BOND
     1     1     2    1
     2     1     3    1
     3     1     4    1
     4     1     8    1
     5     2     7    1
     6     2     9    1
     7     2    16    1
     8     3     5    1
     9     3    19    1
    10     3    20    1
    11     4     6    1
    12     4    17    1
    13     4    18    1
    14     5    10    1
    15     5    21    1
    16     5    22    1
    17     6    11    1
    18     6    23    1
    19     6    24    1
    20     7    10    1
    21     7    13    2
    22     8    25    1
    23     8    26    1
    24     8    27    1
    25     9    11    2
    26     9    28    1
    27    10    29    1
    28    10    30    1
    29    11    12    1
    30    12    14    1
    31    12    15    1
    32    12    31    1
    33    13    32    1
    34    13    33    1
    35    14    34    1
    36    14    35    1
    37    14    36    1
    38    15    37    1
    39    15    38    1
    40    15    39    1
