@<TRIPOS>MOLECULE
IMPHY004055
 21 20 0 0 0
SMALL
GASTEIGER

@<TRIPOS>ATOM
      1 O           5.4641    0.5000    0.0000 O.3     1  UNL1       -0.3898
      2 N           2.8660    0.0000    0.0000 N.4     1  UNL1        0.2385
      3 C           3.7320    0.5000    0.0000 C.3     1  UNL1       -0.0071
      4 C           2.0000   -0.5000    0.0000 C.3     1  UNL1       -0.0417
      5 C           2.3660    0.8660    0.0000 C.3     1  UNL1       -0.0417
      6 C           3.3660   -0.8660    0.0000 C.3     1  UNL1       -0.0417
      7 C           4.5981    0.0000    0.0000 C.3     1  UNL1        0.0841
      8 H           4.1306    0.9749    0.0000 H       1  UNL1        0.0837
      9 H           3.3335    0.9749    0.0000 H       1  UNL1        0.0837
     10 H           1.6900    0.0369    0.0000 H       1  UNL1        0.0778
     11 H           1.4631   -0.8100    0.0000 H       1  UNL1        0.0778
     12 H           2.3100   -1.0369    0.0000 H       1  UNL1        0.0778
     13 H           2.9030    1.1760    0.0000 H       1  UNL1        0.0778
     14 H           2.0560    1.4030    0.0000 H       1  UNL1        0.0778
     15 H           1.8291    0.5560    0.0000 H       1  UNL1        0.0778
     16 H           2.8291   -1.1760    0.0000 H       1  UNL1        0.0778
     17 H           3.6760   -1.4030    0.0000 H       1  UNL1        0.0778
     18 H           3.9030   -0.5560    0.0000 H       1  UNL1        0.0778
     19 H           4.1996   -0.4749    0.0000 H       1  UNL1        0.0610
     20 H           4.9966   -0.4749    0.0000 H       1  UNL1        0.0610
     21 H           6.0010    0.1900    0.0000 H       1  UNL1        0.2096
@<TRIPOS>UNITY_ATOM_ATTR
2 1
charge 1
@<TRIPOS>BOND
     1     1     7    1
     2     1    21    1
     3     2     3    1
     4     2     4    1
     5     2     5    1
     6     2     6    1
     7     3     7    1
     8     3     8    1
     9     3     9    1
    10     4    10    1
    11     4    11    1
    12     4    12    1
    13     5    13    1
    14     5    14    1
    15     5    15    1
    16     6    16    1
    17     6    17    1
    18     6    18    1
    19     7    19    1
    20     7    20    1
