@<TRIPOS>MOLECULE
IMPHY011403
 95 102 0 0 0
SMALL
GASTEIGER

@<TRIPOS>ATOM
      1 O          10.0835   -0.6440    0.0000 O.3     1  UNL1       -0.4510
      2 O           9.6679   -1.4838    0.0000 O.3     1  UNL1       -0.4501
      3 O           8.0172   -1.0787    0.0000 O.3     1  UNL1       -0.4501
      4 O          11.4996    1.7717    0.0000 O.3     1  UNL1       -0.3832
      5 O           9.1813    1.3690    0.0000 O.3     1  UNL1       -0.4505
      6 O           7.1345    0.1270    0.0000 O.3     1  UNL1       -0.4573
      7 O          12.7495    1.8769    0.0000 O.3     1  UNL1       -0.5030
      8 O          11.9332   -1.4889    0.0000 O.2     1  UNL1       -0.2449
      9 O          14.4816   -1.1231    0.0000 O.3     1  UNL1       -0.5028
     10 O          14.4816    0.8769    0.0000 O.3     1  UNL1       -0.5009
     11 O           9.8524   -3.1047    0.0000 O.2     1  UNL1       -0.2449
     12 O          13.9422   -2.1760    0.0000 O.3     1  UNL1       -0.5028
     13 O           6.6782   -0.0528    0.0000 O.2     1  UNL1       -0.2449
     14 O          13.7446   -4.1082    0.0000 O.3     1  UNL1       -0.5009
     15 O          11.9822   -4.9249    0.0000 O.3     1  UNL1       -0.5032
     16 O           9.7725    2.9970    0.0000 O.2     1  UNL1       -0.2449
     17 O           5.9856   -1.3957    0.0000 O.2     1  UNL1       -0.2449
     18 O           5.0117   -3.8608    0.0000 O.3     1  UNL1       -0.5028
     19 O           4.1973   -3.2914    0.0000 O.3     1  UNL1       -0.5028
     20 O           8.5371   -4.1803    0.0000 O.3     1  UNL1       -0.5032
     21 O           6.6813   -5.0473    0.0000 O.3     1  UNL1       -0.5009
     22 O           2.5095   -2.1308    0.0000 O.3     1  UNL1       -0.5009
     23 O           2.6865   -0.0902    0.0000 O.3     1  UNL1       -0.5032
     24 O           5.5959    1.7496    0.0000 O.3     1  UNL1       -0.5032
     25 O           6.7783    5.0056    0.0000 O.3     1  UNL1       -0.5032
     26 O           5.2471    3.7189    0.0000 O.3     1  UNL1       -0.5009
     27 C          10.0835    0.3977    0.0000 C.3     1  UNL1        0.1735
     28 C           9.5666   -0.4748    0.0000 C.3     1  UNL1        0.1830
     29 C           8.5901   -0.2591    0.0000 C.3     1  UNL1        0.1834
     30 C          10.9896    0.9115    0.0000 C.3     1  UNL1        0.1249
     31 C          11.8835    0.3769    0.0000 C.ar    1  UNL1        0.0444
     32 C           8.4158    0.7256    0.0000 C.3     1  UNL1        0.1774
     33 C          11.8835   -0.6231    0.0000 C.ar    1  UNL1        0.0798
     34 C          12.7495   -1.1231    0.0000 C.ar    1  UNL1        0.0462
     35 C          10.9896   -1.1578    0.0000 C.2     1  UNL1        0.3408
     36 C          12.7495    0.8769    0.0000 C.ar    1  UNL1        0.1687
     37 C           7.4758    1.0669    0.0000 C.3     1  UNL1        0.1333
     38 C          12.2616   -2.0122    0.0000 C.ar    1  UNL1        0.0458
     39 C          13.6156   -0.6231    0.0000 C.ar    1  UNL1        0.1708
     40 C          11.3416   -2.4385    0.0000 C.ar    1  UNL1        0.0740
     41 C          10.3479   -2.2361    0.0000 C.2     1  UNL1        0.3405
     42 C          13.6156    0.3769    0.0000 C.ar    1  UNL1        0.2016
     43 C           7.0209   -0.9922    0.0000 C.2     1  UNL1        0.3405
     44 C          13.0273   -2.5796    0.0000 C.ar    1  UNL1        0.1708
     45 C          11.2796   -3.3895    0.0000 C.ar    1  UNL1       -0.0017
     46 C           6.9345   -1.9885    0.0000 C.ar    1  UNL1        0.0740
     47 C          12.9303   -3.5277    0.0000 C.ar    1  UNL1        0.2012
     48 C           9.0069    2.3536    0.0000 C.2     1  UNL1        0.3399
     49 C          12.0656   -3.9284    0.0000 C.ar    1  UNL1        0.1628
     50 C           6.0285   -2.4118    0.0000 C.ar    1  UNL1        0.0458
     51 C           6.2013   -0.4193    0.0000 C.2     1  UNL1        0.3401
     52 C           5.2089   -1.8388    0.0000 C.ar    1  UNL1        0.0458
     53 C           5.2953   -0.8426    0.0000 C.ar    1  UNL1        0.0740
     54 C           7.7973   -2.5721    0.0000 C.ar    1  UNL1       -0.0017
     55 C           8.0670    2.6950    0.0000 C.ar    1  UNL1        0.0661
     56 C           5.9225   -3.4480    0.0000 C.ar    1  UNL1        0.1708
     57 C           4.2721   -2.2942    0.0000 C.ar    1  UNL1        0.1708
     58 C           7.7153   -3.6105    0.0000 C.ar    1  UNL1        0.1628
     59 C           4.4510   -0.2327    0.0000 C.ar    1  UNL1       -0.0017
     60 C           6.7716   -4.0514    0.0000 C.ar    1  UNL1        0.2012
     61 C           3.4139   -1.7040    0.0000 C.ar    1  UNL1        0.2012
     62 C           7.8926    3.6796    0.0000 C.ar    1  UNL1       -0.0023
     63 C           7.3014    2.0516    0.0000 C.ar    1  UNL1       -0.0023
     64 C           3.5039   -0.6663    0.0000 C.ar    1  UNL1        0.1628
     65 C           6.3615    2.3929    0.0000 C.ar    1  UNL1        0.1628
     66 C           6.9526    4.0210    0.0000 C.ar    1  UNL1        0.1628
     67 C           6.1871    3.3776    0.0000 C.ar    1  UNL1        0.2006
     68 H           9.4882    1.0044    0.0000 H       1  UNL1        0.0803
     69 H           9.3199    0.0940    0.0000 H       1  UNL1        0.0812
     70 H           9.2037    0.3292    0.0000 H       1  UNL1        0.0812
     71 H          10.6858    1.4520    0.0000 H       1  UNL1        0.0684
     72 H           8.3076    1.3361    0.0000 H       1  UNL1        0.0808
     73 H           7.6874    1.6497    0.0000 H       1  UNL1        0.0736
     74 H           6.8930    1.2785    0.0000 H       1  UNL1        0.0736
     75 H          11.1958    2.3122    0.0000 H       1  UNL1        0.2104
     76 H          10.7220   -3.6606    0.0000 H       1  UNL1        0.0664
     77 H          13.2865    2.1869    0.0000 H       1  UNL1        0.2923
     78 H          15.0185   -0.8131    0.0000 H       1  UNL1        0.2923
     79 H          15.0185    0.5669    0.0000 H       1  UNL1        0.2924
     80 H           8.3560   -2.3032    0.0000 H       1  UNL1        0.0664
     81 H          14.4426   -2.5421    0.0000 H       1  UNL1        0.2923
     82 H           4.5117    0.3844    0.0000 H       1  UNL1        0.0664
     83 H          13.6853   -4.7254    0.0000 H       1  UNL1        0.2924
     84 H          11.4213   -5.1890    0.0000 H       1  UNL1        0.2923
     85 H           8.3672    4.0785    0.0000 H       1  UNL1        0.0663
     86 H           7.4095    1.4411    0.0000 H       1  UNL1        0.0663
     87 H           4.9510   -4.4778    0.0000 H       1  UNL1        0.2923
     88 H           3.6386   -3.5604    0.0000 H       1  UNL1        0.2923
     89 H           8.4859   -4.7982    0.0000 H       1  UNL1        0.2923
     90 H           7.1881   -5.4045    0.0000 H       1  UNL1        0.2924
     91 H           2.0000   -1.7775    0.0000 H       1  UNL1        0.2924
     92 H           2.7425    0.5273    0.0000 H       1  UNL1        0.2923
     93 H           5.0131    1.9612    0.0000 H       1  UNL1        0.2923
     94 H           7.2529    5.4045    0.0000 H       1  UNL1        0.2923
     95 H           5.1390    4.3294    0.0000 H       1  UNL1        0.2924
@<TRIPOS>BOND
     1     1    27    1
     2     1    35    1
     3     2    28    1
     4     2    41    1
     5     3    29    1
     6     3    43    1
     7    30     4    1
     8     4    75    1
     9    32     5    1
    10     5    48    1
    11     6    37    1
    12     6    51    1
    13     7    36    1
    14     7    77    1
    15     8    35    2
    16     9    39    1
    17     9    78    1
    18    10    42    1
    19    10    79    1
    20    11    41    2
    21    12    44    1
    22    12    81    1
    23    13    43    2
    24    14    47    1
    25    14    83    1
    26    15    49    1
    27    15    84    1
    28    16    48    2
    29    17    51    2
    30    18    56    1
    31    18    87    1
    32    19    57    1
    33    19    88    1
    34    20    58    1
    35    20    89    1
    36    21    60    1
    37    21    90    1
    38    22    61    1
    39    22    91    1
    40    23    64    1
    41    23    92    1
    42    24    65    1
    43    24    93    1
    44    25    66    1
    45    25    94    1
    46    26    67    1
    47    26    95    1
    48    27    28    1
    49    27    30    1
    50    27    68    1
    51    28    29    1
    52    28    69    1
    53    29    32    1
    54    29    70    1
    55    30    31    1
    56    30    71    1
    57    31    33   ar
    58    31    36   ar
    59    32    37    1
    60    32    72    1
    61    33    34   ar
    62    33    35    1
    63    34    38    1
    64    34    39   ar
    65    36    42   ar
    66    37    73    1
    67    37    74    1
    68    38    40   ar
    69    38    44   ar
    70    39    42   ar
    71    40    41    1
    72    40    45   ar
    73    43    46    1
    74    44    47   ar
    75    45    49   ar
    76    45    76    1
    77    46    50   ar
    78    46    54   ar
    79    47    49   ar
    80    48    55    1
    81    50    52    1
    82    50    56   ar
    83    51    53    1
    84    52    53   ar
    85    52    57   ar
    86    53    59   ar
    87    54    58   ar
    88    54    80    1
    89    55    62   ar
    90    55    63   ar
    91    56    60   ar
    92    57    61   ar
    93    58    60   ar
    94    59    64   ar
    95    59    82    1
    96    61    64   ar
    97    62    66   ar
    98    62    85    1
    99    63    65   ar
   100    63    86    1
   101    65    67   ar
   102    66    67   ar
