@<TRIPOS>MOLECULE
IMPHY016877
 60 59 0 0 0
SMALL
GASTEIGER

@<TRIPOS>ATOM
      1 O           3.7320    3.4400    0.0000 O.3     1  UNL1       -0.4648
      2 O           2.8660    1.9400    0.0000 O.2     1  UNL1       -0.2512
      3 C          13.2583   -0.0600    0.0000 C.3     1  UNL1       -0.0530
      4 C          13.2583   -1.0600    0.0000 C.3     1  UNL1       -0.0531
      5 C          12.3923    0.4400    0.0000 C.3     1  UNL1       -0.0528
      6 C          14.1244   -1.5600    0.0000 C.3     1  UNL1       -0.0531
      7 C          12.3923    1.4400    0.0000 C.3     1  UNL1       -0.0496
      8 C           8.0622    2.9400    0.0000 C.3     1  UNL1       -0.0528
      9 C           7.1962    3.4400    0.0000 C.3     1  UNL1       -0.0529
     10 C          14.1244   -2.5600    0.0000 C.3     1  UNL1       -0.0533
     11 C           8.9282    3.4400    0.0000 C.3     1  UNL1       -0.0496
     12 C          11.5263    1.9400    0.0000 C.3     1  UNL1       -0.0348
     13 C           6.3301    2.9400    0.0000 C.3     1  UNL1       -0.0500
     14 C           9.7942    2.9400    0.0000 C.3     1  UNL1       -0.0348
     15 C          14.9904   -3.0600    0.0000 C.3     1  UNL1       -0.0559
     16 C           5.4641    3.4400    0.0000 C.3     1  UNL1       -0.0185
     17 C          11.5263    2.9400    0.0000 C.2     1  UNL1       -0.0879
     18 C          10.6603    3.4400    0.0000 C.2     1  UNL1       -0.0879
     19 C           4.5981    2.9400    0.0000 C.3     1  UNL1        0.0924
     20 C          14.9904   -4.0600    0.0000 C.3     1  UNL1       -0.0653
     21 C           2.8660    2.9400    0.0000 C.2     1  UNL1        0.3039
     22 C           2.0000    3.4400    0.0000 C.3     1  UNL1        0.0332
     23 H          13.8689   -0.1677    0.0000 H       1  UNL1        0.0265
     24 H          13.4704    0.5226    0.0000 H       1  UNL1        0.0265
     25 H          12.6477   -0.9523    0.0000 H       1  UNL1        0.0265
     26 H          13.0463   -1.6426    0.0000 H       1  UNL1        0.0265
     27 H          11.7817    0.5477    0.0000 H       1  UNL1        0.0265
     28 H          12.1803   -0.1426    0.0000 H       1  UNL1        0.0265
     29 H          14.7349   -1.6677    0.0000 H       1  UNL1        0.0265
     30 H          14.3364   -0.9774    0.0000 H       1  UNL1        0.0265
     31 H          13.0029    1.3323    0.0000 H       1  UNL1        0.0268
     32 H          12.6044    2.0226    0.0000 H       1  UNL1        0.0268
     33 H           7.6636    2.4651    0.0000 H       1  UNL1        0.0265
     34 H           8.4607    2.4651    0.0000 H       1  UNL1        0.0265
     35 H           7.5947    3.9150    0.0000 H       1  UNL1        0.0265
     36 H           6.7976    3.9150    0.0000 H       1  UNL1        0.0265
     37 H          13.5138   -2.4523    0.0000 H       1  UNL1        0.0265
     38 H          13.9123   -3.1426    0.0000 H       1  UNL1        0.0265
     39 H           9.3267    3.9150    0.0000 H       1  UNL1        0.0268
     40 H           8.5297    3.9150    0.0000 H       1  UNL1        0.0268
     41 H          10.9157    2.0477    0.0000 H       1  UNL1        0.0307
     42 H          11.3142    1.3574    0.0000 H       1  UNL1        0.0307
     43 H           5.9316    2.4651    0.0000 H       1  UNL1        0.0266
     44 H           6.7287    2.4651    0.0000 H       1  UNL1        0.0266
     45 H           9.3957    2.4651    0.0000 H       1  UNL1        0.0307
     46 H          10.1928    2.4651    0.0000 H       1  UNL1        0.0307
     47 H          15.6010   -3.1677    0.0000 H       1  UNL1        0.0263
     48 H          15.2024   -2.4774    0.0000 H       1  UNL1        0.0263
     49 H           5.8626    3.9150    0.0000 H       1  UNL1        0.0298
     50 H           5.0656    3.9150    0.0000 H       1  UNL1        0.0298
     51 H          12.0632    3.2500    0.0000 H       1  UNL1        0.0569
     52 H          10.6603    4.0600    0.0000 H       1  UNL1        0.0569
     53 H           4.1996    2.4651    0.0000 H       1  UNL1        0.0697
     54 H           4.9966    2.4651    0.0000 H       1  UNL1        0.0697
     55 H          14.3704   -4.0600    0.0000 H       1  UNL1        0.0230
     56 H          14.9904   -4.6800    0.0000 H       1  UNL1        0.0230
     57 H          15.6104   -4.0600    0.0000 H       1  UNL1        0.0230
     58 H           2.3100    3.9769    0.0000 H       1  UNL1        0.0342
     59 H           1.4631    3.7500    0.0000 H       1  UNL1        0.0342
     60 H           1.6900    2.9031    0.0000 H       1  UNL1        0.0342
@<TRIPOS>BOND
     1     1    19    1
     2     1    21    1
     3     2    21    2
     4     3     4    1
     5     3     5    1
     6     3    23    1
     7     3    24    1
     8     4     6    1
     9     4    25    1
    10     4    26    1
    11     5     7    1
    12     5    27    1
    13     5    28    1
    14     6    10    1
    15     6    29    1
    16     6    30    1
    17     7    12    1
    18     7    31    1
    19     7    32    1
    20     8     9    1
    21     8    11    1
    22     8    33    1
    23     8    34    1
    24     9    13    1
    25     9    35    1
    26     9    36    1
    27    10    15    1
    28    10    37    1
    29    10    38    1
    30    11    14    1
    31    11    39    1
    32    11    40    1
    33    12    17    1
    34    12    41    1
    35    12    42    1
    36    13    16    1
    37    13    43    1
    38    13    44    1
    39    14    18    1
    40    14    45    1
    41    14    46    1
    42    15    20    1
    43    15    47    1
    44    15    48    1
    45    16    19    1
    46    16    49    1
    47    16    50    1
    48    17    18    2
    49    17    51    1
    50    18    52    1
    51    19    53    1
    52    19    54    1
    53    20    55    1
    54    20    56    1
    55    20    57    1
    56    21    22    1
    57    22    58    1
    58    22    59    1
    59    22    60    1
