@<TRIPOS>MOLECULE
IMPHY013221
 83 87 0 0 0
SMALL
GASTEIGER

@<TRIPOS>ATOM
      1 O           2.5357   -1.9885    0.0000 O.3     1  UNL1       -0.3912
      2 O          11.4608    1.0980    0.0000 O.3     1  UNL1       -0.3945
      3 O           4.3500   -3.7663    0.0000 O.3     1  UNL1       -0.3944
      4 C           7.0628   -0.4361    0.0000 C.3     1  UNL1       -0.0231
      5 C           7.9288    0.0639    0.0000 C.3     1  UNL1       -0.0233
      6 C           6.1968    0.0639    0.0000 C.3     1  UNL1       -0.0294
      7 C           7.9288    1.0639    0.0000 C.3     1  UNL1       -0.0312
      8 C           5.2868   -0.4430    0.0000 C.3     1  UNL1       -0.0252
      9 C           8.8228    1.5985    0.0000 C.3     1  UNL1       -0.0235
     10 C           9.7288    1.0847    0.0000 C.3     1  UNL1       -0.0024
     11 C           5.2787   -1.4846    0.0000 C.3     1  UNL1       -0.0255
     12 C           8.8228   -0.4708    0.0000 C.3     1  UNL1       -0.0463
     13 C           7.0789   -1.4776    0.0000 C.3     1  UNL1       -0.0466
     14 C           6.1968    1.0639    0.0000 C.3     1  UNL1       -0.0489
     15 C           7.0628    1.5639    0.0000 C.3     1  UNL1       -0.0491
     16 C           9.7288    0.0431    0.0000 C.3     1  UNL1       -0.0445
     17 C           6.1808   -2.0054    0.0000 C.3     1  UNL1       -0.0485
     18 C           9.0329    2.6124    0.0000 C.3     1  UNL1       -0.0167
     19 C           4.3433   -2.0343    0.0000 C.3     1  UNL1        0.0203
     20 C           4.3599    0.1211    0.0000 C.3     1  UNL1       -0.0447
     21 C           7.7056   -1.2022    0.0000 C.3     1  UNL1       -0.0588
     22 C          10.4911    1.7854    0.0000 C.3     1  UNL1       -0.0445
     23 C           8.2709   -0.8758    0.0000 C.3     1  UNL1       -0.0588
     24 C          10.0619    2.7277    0.0000 C.3     1  UNL1       -0.0457
     25 C           5.2945    0.5570    0.0000 C.3     1  UNL1       -0.0590
     26 C           3.4037   -1.4918    0.0000 C.3     1  UNL1        0.0630
     27 C           3.4120   -0.4068    0.0000 C.3     1  UNL1       -0.0257
     28 C          10.5987    0.5914    0.0000 C.3     1  UNL1        0.0501
     29 C           3.8467   -2.9022    0.0000 C.3     1  UNL1        0.0522
     30 C           4.8466   -2.8984    0.0000 C.3     1  UNL1       -0.0548
     31 C           8.3593    3.3516    0.0000 C.2     1  UNL1       -0.0763
     32 C           8.6626    4.3045    0.0000 C.3     1  UNL1       -0.0438
     33 C           7.3824    3.1378    0.0000 C.2     1  UNL1       -0.0994
     34 H           6.9329    0.4889    0.0000 H       1  UNL1        0.0312
     35 H           7.9223    1.9138    0.0000 H       1  UNL1        0.0309
     36 H           8.1300    2.0911    0.0000 H       1  UNL1        0.0315
     37 H           5.2820   -2.3346    0.0000 H       1  UNL1        0.0313
     38 H           8.4182   -0.9406    0.0000 H       1  UNL1        0.0271
     39 H           9.2164   -0.9498    0.0000 H       1  UNL1        0.0271
     40 H           7.2969   -2.0580    0.0000 H       1  UNL1        0.0271
     41 H           7.6880   -1.3621    0.0000 H       1  UNL1        0.0271
     42 H           5.9847    1.6465    0.0000 H       1  UNL1        0.0268
     43 H           5.5862    0.9562    0.0000 H       1  UNL1        0.0268
     44 H           7.4613    2.0388    0.0000 H       1  UNL1        0.0268
     45 H           6.6643    2.0388    0.0000 H       1  UNL1        0.0268
     46 H           9.9379   -0.5406    0.0000 H       1  UNL1        0.0272
     47 H          10.3397    0.1491    0.0000 H       1  UNL1        0.0272
     48 H           5.7835   -2.4814    0.0000 H       1  UNL1        0.0268
     49 H           6.5818   -2.4783    0.0000 H       1  UNL1        0.0268
     50 H           9.2513    3.1927    0.0000 H       1  UNL1        0.0348
     51 H           4.7681    0.5878    0.0000 H       1  UNL1        0.0271
     52 H           3.9700    0.6031    0.0000 H       1  UNL1        0.0271
     53 H           7.2306   -1.6007    0.0000 H       1  UNL1        0.0235
     54 H           8.1041   -1.6771    0.0000 H       1  UNL1        0.0235
     55 H           8.1805   -0.8036    0.0000 H       1  UNL1        0.0235
     56 H          10.8604    1.2874    0.0000 H       1  UNL1        0.0272
     57 H          11.0252    2.1003    0.0000 H       1  UNL1        0.0272
     58 H           7.6884   -1.0879    0.0000 H       1  UNL1        0.0235
     59 H           8.4830   -1.4584    0.0000 H       1  UNL1        0.0235
     60 H           8.8535   -0.6637    0.0000 H       1  UNL1        0.0235
     61 H          10.6500    2.9240    0.0000 H       1  UNL1        0.0271
     62 H           9.9285    3.3332    0.0000 H       1  UNL1        0.0271
     63 H           5.9145    0.5522    0.0000 H       1  UNL1        0.0235
     64 H           5.2993    1.1770    0.0000 H       1  UNL1        0.0235
     65 H           4.6745    0.5618    0.0000 H       1  UNL1        0.0235
     66 H           3.4025   -2.1118    0.0000 H       1  UNL1        0.0599
     67 H           3.2075    0.1784    0.0000 H       1  UNL1        0.0290
     68 H           2.8004   -0.5082    0.0000 H       1  UNL1        0.0290
     69 H          10.2038    0.1134    0.0000 H       1  UNL1        0.0563
     70 H          11.0009    0.1195    0.0000 H       1  UNL1        0.0563
     71 H           3.3702   -2.5056    0.0000 H       1  UNL1        0.0563
     72 H           3.3732   -3.3026    0.0000 H       1  UNL1        0.0563
     73 H           4.3109   -3.2105    0.0000 H       1  UNL1        0.0237
     74 H           5.1587   -3.4341    0.0000 H       1  UNL1        0.0237
     75 H           5.3824   -2.5863    0.0000 H       1  UNL1        0.0237
     76 H           2.0000   -1.6764    0.0000 H       1  UNL1        0.2098
     77 H          12.0001    0.7922    0.0000 H       1  UNL1        0.2094
     78 H           9.2534    4.1164    0.0000 H       1  UNL1        0.0274
     79 H           8.8507    4.8953    0.0000 H       1  UNL1        0.0274
     80 H           8.0718    4.4925    0.0000 H       1  UNL1        0.0274
     81 H           6.9648    3.5961    0.0000 H       1  UNL1        0.0534
     82 H           7.1944    2.5470    0.0000 H       1  UNL1        0.0534
     83 H           4.0421   -4.3045    0.0000 H       1  UNL1        0.2094
@<TRIPOS>BOND
     1    26     1    1
     2     1    76    1
     3     2    28    1
     4     2    77    1
     5     3    29    1
     6     3    83    1
     7     4     5    1
     8     4     6    1
     9     4    13    1
    10     4    21    1
    11     5     7    1
    12     5    12    1
    13     5    23    1
    14     6     8    1
    15     6    14    1
    16     6    34    1
    17     7     9    1
    18     7    15    1
    19     7    35    1
    20     8    11    1
    21     8    20    1
    22     8    25    1
    23     9    10    1
    24     9    18    1
    25     9    36    1
    26    10    16    1
    27    10    22    1
    28    10    28    1
    29    11    17    1
    30    11    19    1
    31    11    37    1
    32    12    16    1
    33    12    38    1
    34    12    39    1
    35    13    17    1
    36    13    40    1
    37    13    41    1
    38    14    15    1
    39    14    42    1
    40    14    43    1
    41    15    44    1
    42    15    45    1
    43    16    46    1
    44    16    47    1
    45    17    48    1
    46    17    49    1
    47    18    24    1
    48    18    31    1
    49    18    50    1
    50    19    26    1
    51    19    29    1
    52    19    30    1
    53    20    27    1
    54    20    51    1
    55    20    52    1
    56    21    53    1
    57    21    54    1
    58    21    55    1
    59    22    24    1
    60    22    56    1
    61    22    57    1
    62    23    58    1
    63    23    59    1
    64    23    60    1
    65    24    61    1
    66    24    62    1
    67    25    63    1
    68    25    64    1
    69    25    65    1
    70    26    27    1
    71    26    66    1
    72    27    67    1
    73    27    68    1
    74    28    69    1
    75    28    70    1
    76    29    71    1
    77    29    72    1
    78    30    73    1
    79    30    74    1
    80    30    75    1
    81    31    32    1
    82    31    33    2
    83    32    78    1
    84    32    79    1
    85    32    80    1
    86    33    81    1
    87    33    82    1
