@<TRIPOS>MOLECULE
IMPHY001005
 71 75 0 0 0
SMALL
GASTEIGER

@<TRIPOS>ATOM
      1 O           2.3046    1.3647    0.0000 O.3     1  UNL1       -0.4641
      2 O           8.2976    0.3964    0.0000 O.3     1  UNL1       -0.4796
      3 O           2.3978   -0.4149    0.0000 O.2     1  UNL1       -0.2505
      4 O           6.4853   -0.7989    0.0000 O.3     1  UNL1       -0.4914
      5 O           7.9404    3.7007    0.0000 O.3     1  UNL1       -0.3943
      6 O          11.8812   -0.5309    0.0000 O.3     1  UNL1       -0.4914
      7 O           2.2079   -2.5369    0.0000 O.3     1  UNL1       -0.4915
      8 O          12.8812    1.2011    0.0000 O.3     1  UNL1       -0.5033
      9 O           3.6942   -3.8751    0.0000 O.3     1  UNL1       -0.5033
     10 C           3.8872    1.7011    0.0000 C.3     1  UNL1        0.0105
     11 C           3.7827    0.7066    0.0000 C.3     1  UNL1        0.0666
     12 C           4.7533    2.2011    0.0000 C.3     1  UNL1       -0.0209
     13 C           8.2976    2.0058    0.0000 C.3     1  UNL1        0.0520
     14 C           2.9737    2.1078    0.0000 C.3     1  UNL1        0.0963
     15 C           7.3513    1.7011    0.0000 C.ar    1  UNL1        0.0073
     16 C           8.8812    1.2011    0.0000 C.3     1  UNL1        0.1344
     17 C           5.6193    1.7011    0.0000 C.ar    1  UNL1       -0.0430
     18 C           4.5258    0.0375    0.0000 C.3     1  UNL1       -0.0143
     19 C           2.8046    0.4987    0.0000 C.2     1  UNL1        0.3109
     20 C           7.3513    0.7011    0.0000 C.ar    1  UNL1        0.1664
     21 C           6.4853    2.2011    0.0000 C.ar    1  UNL1       -0.0512
     22 C           5.6193    0.7011    0.0000 C.ar    1  UNL1       -0.0131
     23 C           8.6082    2.9564    0.0000 C.3     1  UNL1        0.0548
     24 C           6.4853    0.2011    0.0000 C.ar    1  UNL1        0.1621
     25 C           9.8812    1.2011    0.0000 C.ar    1  UNL1       -0.0030
     26 C           4.3179   -0.9407    0.0000 C.ar    1  UNL1       -0.0429
     27 C          10.3812    0.3351    0.0000 C.ar    1  UNL1       -0.0096
     28 C          10.3812    2.0671    0.0000 C.ar    1  UNL1       -0.0514
     29 C           3.3669   -1.2497    0.0000 C.ar    1  UNL1       -0.0131
     30 C           5.0611   -1.6098    0.0000 C.ar    1  UNL1       -0.0549
     31 C          11.3812    0.3351    0.0000 C.ar    1  UNL1        0.1616
     32 C          11.3812    2.0671    0.0000 C.ar    1  UNL1       -0.0161
     33 C           3.1590   -2.2278    0.0000 C.ar    1  UNL1        0.1615
     34 C           4.8532   -2.5880    0.0000 C.ar    1  UNL1       -0.0163
     35 C          11.8812    1.2011    0.0000 C.ar    1  UNL1        0.1585
     36 C           3.9021   -2.8970    0.0000 C.ar    1  UNL1        0.1585
     37 C           5.6193   -1.2989    0.0000 C.3     1  UNL1        0.0790
     38 C          11.3812   -1.3970    0.0000 C.3     1  UNL1        0.0790
     39 C           2.0000   -3.5150    0.0000 C.3     1  UNL1        0.0790
     40 H           4.4072    1.3634    0.0000 H       1  UNL1        0.0345
     41 H           3.6222    0.1077    0.0000 H       1  UNL1        0.0420
     42 H           5.1518    2.6761    0.0000 H       1  UNL1        0.0317
     43 H           4.3547    2.6761    0.0000 H       1  UNL1        0.0317
     44 H           7.8601    2.4452    0.0000 H       1  UNL1        0.0412
     45 H           3.2837    2.6448    0.0000 H       1  UNL1        0.0700
     46 H           2.4721    2.4723    0.0000 H       1  UNL1        0.0700
     47 H           9.1629    0.6488    0.0000 H       1  UNL1        0.0791
     48 H           5.1007   -0.1948    0.0000 H       1  UNL1        0.0321
     49 H           4.8544    0.5633    0.0000 H       1  UNL1        0.0321
     50 H           6.4853    2.8211    0.0000 H       1  UNL1        0.0624
     51 H           5.0824    0.3911    0.0000 H       1  UNL1        0.0658
     52 H           9.1551    2.6644    0.0000 H       1  UNL1        0.0564
     53 H           8.9908    3.4443    0.0000 H       1  UNL1        0.0564
     54 H          10.0712   -0.2018    0.0000 H       1  UNL1        0.0659
     55 H          10.0712    2.6041    0.0000 H       1  UNL1        0.0623
     56 H           2.9061   -0.8348    0.0000 H       1  UNL1        0.0658
     57 H           5.6507   -1.4182    0.0000 H       1  UNL1        0.0621
     58 H           8.1330    4.2900    0.0000 H       1  UNL1        0.2094
     59 H          11.6912    2.6041    0.0000 H       1  UNL1        0.0655
     60 H           5.3139   -3.0028    0.0000 H       1  UNL1        0.0655
     61 H           5.3093   -0.7620    0.0000 H       1  UNL1        0.0660
     62 H           5.0824   -1.6089    0.0000 H       1  UNL1        0.0660
     63 H           5.9293   -1.8358    0.0000 H       1  UNL1        0.0660
     64 H          13.1912    1.7380    0.0000 H       1  UNL1        0.2923
     65 H           4.1550   -4.2900    0.0000 H       1  UNL1        0.2923
     66 H          10.8442   -1.0870    0.0000 H       1  UNL1        0.0660
     67 H          11.0712   -1.9339    0.0000 H       1  UNL1        0.0660
     68 H          11.9181   -1.7070    0.0000 H       1  UNL1        0.0660
     69 H           1.3936   -3.3861    0.0000 H       1  UNL1        0.0660
     70 H           1.8711   -4.1215    0.0000 H       1  UNL1        0.0660
     71 H           2.6064   -3.6439    0.0000 H       1  UNL1        0.0660
@<TRIPOS>BOND
     1     1    14    1
     2     1    19    1
     3     2    16    1
     4     2    20    1
     5     3    19    2
     6     4    24    1
     7     4    37    1
     8     5    23    1
     9     5    58    1
    10     6    31    1
    11     6    38    1
    12     7    33    1
    13     7    39    1
    14     8    35    1
    15     8    64    1
    16     9    36    1
    17     9    65    1
    18    10    11    1
    19    10    12    1
    20    10    14    1
    21    10    40    1
    22    11    18    1
    23    11    19    1
    24    11    41    1
    25    12    17    1
    26    12    42    1
    27    12    43    1
    28    13    15    1
    29    13    16    1
    30    13    23    1
    31    13    44    1
    32    14    45    1
    33    14    46    1
    34    15    20   ar
    35    15    21   ar
    36    16    25    1
    37    16    47    1
    38    17    21   ar
    39    17    22   ar
    40    18    26    1
    41    18    48    1
    42    18    49    1
    43    20    24   ar
    44    21    50    1
    45    22    24   ar
    46    22    51    1
    47    23    52    1
    48    23    53    1
    49    25    27   ar
    50    25    28   ar
    51    26    29   ar
    52    26    30   ar
    53    27    31   ar
    54    27    54    1
    55    28    32   ar
    56    28    55    1
    57    29    33   ar
    58    29    56    1
    59    30    34   ar
    60    30    57    1
    61    31    35   ar
    62    32    35   ar
    63    32    59    1
    64    33    36   ar
    65    34    36   ar
    66    34    60    1
    67    37    61    1
    68    37    62    1
    69    37    63    1
    70    38    66    1
    71    38    67    1
    72    38    68    1
    73    39    69    1
    74    39    70    1
    75    39    71    1
