@<TRIPOS>MOLECULE
IMPHY010208
 43 47 0 0 0
SMALL
GASTEIGER
****
Created with ChemWriter - http://chemwriter.com
@<TRIPOS>ATOM
      1 C           0.7359    1.7593    0.0000 C.2     1  UNL1        0.0823
      2 C           0.7359    0.9591    0.0000 C.2     1  UNL1        0.1786
      3 C           2.1394    1.7593    0.0000 C.3     1  UNL1        0.1857
      4 C           0.0322    2.1616    0.0000 C.2     1  UNL1        0.2028
      5 C           0.0322    0.5570    0.0000 C.3     1  UNL1        0.3271
      6 O           1.4356    0.5570    0.0000 O.2     1  UNL1       -0.4726
      7 C           2.1394    0.9591    0.0000 C.3     1  UNL1        0.2296
      8 O           2.8431    2.1616    0.0000 O.3     1  UNL1       -0.3449
      9 C          -0.6756    1.7593    0.0000 C.2     1  UNL1        0.1176
     10 O           0.0322    2.9980    0.0000 O.2     1  UNL1       -0.2865
     11 C          -0.6756    0.9591    0.0000 C.2     1  UNL1        0.2400
     12 O          -0.3821   -0.1708    0.0000 O.3     1  UNL1       -0.2943
     13 O           0.4665   -0.1830    0.0000 O.3     1  UNL1       -0.1786
     14 C           2.8431    0.5570    0.0000 C.3     1  UNL1        0.2270
     15 C           3.5509    1.7593    0.0000 C.3     1  UNL1        0.1814
     16 C          -1.4035    2.1736    0.0000 C.2     1  UNL1        0.2017
     17 O          -1.4035    0.5450    0.0000 O.2     1  UNL1       -0.2854
     18 C           0.0522   -0.8625    0.0000 C.3     1  UNL1        0.2718
     19 C           3.5509    0.9591    0.0000 C.3     1  UNL1        0.2153
     20 O           2.8431   -0.2674    0.0000 O.3     1  UNL1       -0.2163
     21 C           4.2667    2.1736    0.0000 C.3     1  UNL1        0.2141
     22 C          -2.1314    1.7513    0.0000 C.2     1  UNL1        0.0422
     23 O          -1.4035    3.0100    0.0000 O.2     1  UNL1       -0.2864
     24 O          -0.3579   -1.5905    0.0000 O.3     1  UNL1       -0.3256
     25 C           0.8807   -0.8625    0.0000 C.3     1  UNL1        0.2406
     26 O           4.2667    0.5450    0.0000 O.3     1  UNL1       -0.2176
     27 O           4.9825    1.7593    0.0000 O.3     1  UNL1       -0.2176
     28 C          -2.1314    0.9108    0.0000 C.2     1  UNL1        0.0033
     29 C           0.0522   -2.3063    0.0000 C.3     1  UNL1        0.1835
     30 C           1.3150   -1.5783    0.0000 C.3     1  UNL1        0.2198
     31 O           1.2667   -0.1467    0.0000 O.3     1  UNL1       -0.2149
     32 C          -2.8472    0.5007    0.0000 C.ar    1  UNL1        0.0003
     33 C           0.9249   -2.3183    0.0000 C.3     1  UNL1        0.2144
     34 C          -0.3981   -2.9939    0.0000 C.3     1  UNL1        0.2142
     35 O           2.1394   -1.5623    0.0000 O.3     1  UNL1       -0.2174
     36 C          -2.8351   -0.3116    0.0000 C.ar    1  UNL1        0.0033
     37 C          -3.5509    0.9229    0.0000 C.ar    1  UNL1        0.0033
     38 O           1.3753   -3.0100    0.0000 O.3     1  UNL1       -0.2176
     39 O          -1.1943   -2.9819    0.0000 O.3     1  UNL1       -0.2176
     40 C          -3.5791   -0.7781    0.0000 C.ar    1  UNL1        0.0420
     41 C          -4.2788    0.5128    0.0000 C.ar    1  UNL1        0.0420
     42 C          -4.2949   -0.3760    0.0000 C.ar    1  UNL1        0.1957
     43 O          -4.9825   -0.8344    0.0000 O.3     1  UNL1       -0.2866
@<TRIPOS>BOND
     1     1     2    2
     2     1     3    1
     3     1     4    1
     4     2     5    1
     5     2     6    1
     6     3     7    1
     7     3     8    1
     8     4     9    1
     9     4    10    2
    10     5    11    1
    11     5    12    1
    12     5    13    1
    13     6     7    1
    14     7    14    1
    15     8    15    1
    16     9    16    1
    17     9    11    2
    18    11    17    1
    19    14    19    1
    20    14    20    1
    21    15    21    1
    22    15    19    1
    23    16    22    1
    24    16    23    2
    25    18    12    1
    26    18    24    1
    27    18    25    1
    28    19    26    1
    29    21    27    1
    30    22    28    2
    31    24    29    1
    32    25    30    1
    33    25    31    1
    34    28    32    1
    35    29    33    1
    36    29    34    1
    37    30    35    1
    38    30    33    1
    39    32    36   ar
    40    32    37   ar
    41    33    38    1
    42    34    39    1
    43    36    40   ar
    44    37    41   ar
    45    40    42   ar
    46    41    42   ar
    47    42    43    1
