@<TRIPOS>MOLECULE
IMPHY009752
 27 27 0 0 0
SMALL
GASTEIGER

@<TRIPOS>ATOM
      1 O           4.7320    1.7500    0.0000 O.2     1  UNL1       -0.2960
      2 C           3.0000   -0.2500    0.0000 C.3     1  UNL1       -0.0069
      3 C           3.0000   -1.2500    0.0000 C.3     1  UNL1       -0.0435
      4 C           3.8660   -1.7500    0.0000 C.3     1  UNL1       -0.0486
      5 C           3.8660    0.2500    0.0000 C.2     1  UNL1       -0.0036
      6 C           4.7320   -1.2500    0.0000 C.3     1  UNL1       -0.0313
      7 C           4.7320   -0.2500    0.0000 C.2     1  UNL1       -0.0659
      8 C           2.0000   -0.2500    0.0000 C.3     1  UNL1       -0.0557
      9 C           2.5000    0.6160    0.0000 C.3     1  UNL1       -0.0557
     10 C           5.5981    0.2500    0.0000 C.3     1  UNL1       -0.0431
     11 C           3.8660    1.2500    0.0000 C.2     1  UNL1        0.1467
     12 H           2.3894   -1.1423    0.0000 H       1  UNL1        0.0274
     13 H           2.7880   -1.8326    0.0000 H       1  UNL1        0.0274
     14 H           3.4675   -2.2250    0.0000 H       1  UNL1        0.0269
     15 H           4.2646   -2.2250    0.0000 H       1  UNL1        0.0269
     16 H           4.9441   -1.8326    0.0000 H       1  UNL1        0.0310
     17 H           5.3426   -1.1423    0.0000 H       1  UNL1        0.0310
     18 H           2.0000    0.3700    0.0000 H       1  UNL1        0.0238
     19 H           1.3800   -0.2500    0.0000 H       1  UNL1        0.0238
     20 H           2.0000   -0.8700    0.0000 H       1  UNL1        0.0238
     21 H           3.0369    0.9260    0.0000 H       1  UNL1        0.0238
     22 H           2.1900    1.1530    0.0000 H       1  UNL1        0.0238
     23 H           1.9631    0.3060    0.0000 H       1  UNL1        0.0238
     24 H           5.9081   -0.2869    0.0000 H       1  UNL1        0.0275
     25 H           6.1350    0.5600    0.0000 H       1  UNL1        0.0275
     26 H           5.2881    0.7869    0.0000 H       1  UNL1        0.0275
     27 H           3.3291    1.5600    0.0000 H       1  UNL1        0.1078
@<TRIPOS>BOND
     1     1    11    2
     2     2     3    1
     3     2     5    1
     4     2     8    1
     5     2     9    1
     6     3     4    1
     7     3    12    1
     8     3    13    1
     9     4     6    1
    10     4    14    1
    11     4    15    1
    12     5     7    2
    13     5    11    1
    14     6     7    1
    15     6    16    1
    16     6    17    1
    17     7    10    1
    18     8    18    1
    19     8    19    1
    20     8    20    1
    21     9    21    1
    22     9    22    1
    23     9    23    1
    24    10    24    1
    25    10    25    1
    26    10    26    1
    27    11    27    1
