@<TRIPOS>MOLECULE
IMPHY012340
 71 71 0 0 0
SMALL
GASTEIGER

@<TRIPOS>ATOM
      1 O           2.5369   -5.2500    0.0000 O.2     1  UNL1       -0.5029
      2 O           6.0010   -5.2500    0.0000 O.2     1  UNL1       -0.2836
      3 O           6.0010   -7.2500    0.0000 O.2     1  UNL1       -0.4911
      4 O           2.5369   -7.2500    0.0000 O.2     1  UNL1       -0.2839
      5 C           7.7331    1.7500    0.0000 C.3     1  UNL1       -0.0531
      6 C           7.7331    0.7500    0.0000 C.3     1  UNL1       -0.0531
      7 C           8.5991    2.2500    0.0000 C.3     1  UNL1       -0.0531
      8 C           6.8671    0.2500    0.0000 C.3     1  UNL1       -0.0531
      9 C           8.5991    3.2500    0.0000 C.3     1  UNL1       -0.0531
     10 C           6.8671   -0.7500    0.0000 C.3     1  UNL1       -0.0531
     11 C           9.4651    3.7500    0.0000 C.3     1  UNL1       -0.0531
     12 C           6.0010   -1.2500    0.0000 C.3     1  UNL1       -0.0531
     13 C           9.4651    4.7500    0.0000 C.3     1  UNL1       -0.0531
     14 C           6.0010   -2.2500    0.0000 C.3     1  UNL1       -0.0530
     15 C          10.3312    5.2500    0.0000 C.3     1  UNL1       -0.0531
     16 C           5.1350   -2.7500    0.0000 C.3     1  UNL1       -0.0528
     17 C          10.3312    6.2500    0.0000 C.3     1  UNL1       -0.0531
     18 C           5.1350   -3.7500    0.0000 C.3     1  UNL1       -0.0488
     19 C          11.1972    6.7500    0.0000 C.3     1  UNL1       -0.0533
     20 C           4.2690   -4.2500    0.0000 C.3     1  UNL1       -0.0203
     21 C          11.1972    7.7500    0.0000 C.3     1  UNL1       -0.0559
     22 C           4.2690   -5.2500    0.0000 C.2     1  UNL1        0.0481
     23 C          12.0632    8.2500    0.0000 C.3     1  UNL1       -0.0653
     24 C           3.4030   -5.7500    0.0000 C.2     1  UNL1        0.1707
     25 C           5.1350   -5.7500    0.0000 C.2     1  UNL1        0.2271
     26 C           5.1350   -6.7500    0.0000 C.2     1  UNL1        0.1707
     27 C           3.4030   -6.7500    0.0000 C.2     1  UNL1        0.2240
     28 C           4.2690   -7.2500    0.0000 C.2     1  UNL1        0.0343
     29 C           6.0010   -8.2500    0.0000 C.3     1  UNL1        0.0790
     30 H           7.5210    2.3326    0.0000 H       1  UNL1        0.0265
     31 H           7.1225    1.6423    0.0000 H       1  UNL1        0.0265
     32 H           7.9451    0.1674    0.0000 H       1  UNL1        0.0265
     33 H           8.3437    0.8577    0.0000 H       1  UNL1        0.0265
     34 H           8.8112    1.6674    0.0000 H       1  UNL1        0.0265
     35 H           9.2097    2.3577    0.0000 H       1  UNL1        0.0265
     36 H           6.6550    0.8326    0.0000 H       1  UNL1        0.0265
     37 H           6.2565    0.1423    0.0000 H       1  UNL1        0.0265
     38 H           8.3871    3.8326    0.0000 H       1  UNL1        0.0265
     39 H           7.9885    3.1423    0.0000 H       1  UNL1        0.0265
     40 H           7.0791   -1.3326    0.0000 H       1  UNL1        0.0265
     41 H           7.4776   -0.6423    0.0000 H       1  UNL1        0.0265
     42 H           9.6772    3.1674    0.0000 H       1  UNL1        0.0265
     43 H          10.0757    3.8577    0.0000 H       1  UNL1        0.0265
     44 H           5.7890   -0.6674    0.0000 H       1  UNL1        0.0265
     45 H           5.3905   -1.3577    0.0000 H       1  UNL1        0.0265
     46 H           9.2531    5.3326    0.0000 H       1  UNL1        0.0265
     47 H           8.8546    4.6423    0.0000 H       1  UNL1        0.0265
     48 H           6.2131   -2.8326    0.0000 H       1  UNL1        0.0265
     49 H           6.6116   -2.1423    0.0000 H       1  UNL1        0.0265
     50 H          10.5432    4.6674    0.0000 H       1  UNL1        0.0265
     51 H          10.9417    5.3577    0.0000 H       1  UNL1        0.0265
     52 H           4.9230   -2.1674    0.0000 H       1  UNL1        0.0265
     53 H           4.5244   -2.8577    0.0000 H       1  UNL1        0.0265
     54 H          10.1191    6.8326    0.0000 H       1  UNL1        0.0265
     55 H           9.7206    6.1423    0.0000 H       1  UNL1        0.0265
     56 H           5.3471   -4.3326    0.0000 H       1  UNL1        0.0268
     57 H           5.7456   -3.6423    0.0000 H       1  UNL1        0.0268
     58 H          11.4092    6.1674    0.0000 H       1  UNL1        0.0265
     59 H          11.8078    6.8577    0.0000 H       1  UNL1        0.0265
     60 H           4.0569   -3.6674    0.0000 H       1  UNL1        0.0316
     61 H           3.6584   -4.3577    0.0000 H       1  UNL1        0.0316
     62 H          10.9851    8.3326    0.0000 H       1  UNL1        0.0263
     63 H          10.5866    7.6423    0.0000 H       1  UNL1        0.0263
     64 H          12.3732    7.7131    0.0000 H       1  UNL1        0.0230
     65 H          12.6002    8.5600    0.0000 H       1  UNL1        0.0230
     66 H          11.7532    8.7869    0.0000 H       1  UNL1        0.0230
     67 H           4.2690   -7.8700    0.0000 H       1  UNL1        0.0695
     68 H           2.0000   -5.5600    0.0000 H       1  UNL1        0.2923
     69 H           5.3810   -8.2500    0.0000 H       1  UNL1        0.0660
     70 H           6.0010   -8.8700    0.0000 H       1  UNL1        0.0660
     71 H           6.6210   -8.2500    0.0000 H       1  UNL1        0.0660
@<TRIPOS>BOND
     1     1    24    1
     2     1    68    1
     3     2    25    2
     4     3    26    1
     5     3    29    1
     6     4    27    2
     7     5     6    1
     8     5     7    1
     9     5    30    1
    10     5    31    1
    11     6     8    1
    12     6    32    1
    13     6    33    1
    14     7     9    1
    15     7    34    1
    16     7    35    1
    17     8    10    1
    18     8    36    1
    19     8    37    1
    20     9    11    1
    21     9    38    1
    22     9    39    1
    23    10    12    1
    24    10    40    1
    25    10    41    1
    26    11    13    1
    27    11    42    1
    28    11    43    1
    29    12    14    1
    30    12    44    1
    31    12    45    1
    32    13    15    1
    33    13    46    1
    34    13    47    1
    35    14    16    1
    36    14    48    1
    37    14    49    1
    38    15    17    1
    39    15    50    1
    40    15    51    1
    41    16    18    1
    42    16    52    1
    43    16    53    1
    44    17    19    1
    45    17    54    1
    46    17    55    1
    47    18    20    1
    48    18    56    1
    49    18    57    1
    50    19    21    1
    51    19    58    1
    52    19    59    1
    53    20    22    1
    54    20    60    1
    55    20    61    1
    56    21    23    1
    57    21    62    1
    58    21    63    1
    59    22    24    2
    60    22    25    1
    61    23    64    1
    62    23    65    1
    63    23    66    1
    64    24    27    1
    65    25    26    1
    66    26    28    2
    67    27    28    1
    68    28    67    1
    69    29    69    1
    70    29    70    1
    71    29    71    1
