@<TRIPOS>MOLECULE
IMPHY012309
 46 46 0 0 0
SMALL
GASTEIGER

@<TRIPOS>ATOM
      1 O           4.3917   -2.7236    0.0000 O.3     1  UNL1       -0.3918
      2 C           4.3917   -1.7236    0.0000 C.3     1  UNL1        0.0553
      3 C           3.4136   -1.5157    0.0000 C.3     1  UNL1       -0.0269
      4 C           5.3698   -1.5157    0.0000 C.3     1  UNL1       -0.0269
      5 C           2.6045   -0.9279    0.0000 C.3     1  UNL1       -0.0507
      6 C           6.1789   -0.9279    0.0000 C.3     1  UNL1       -0.0507
      7 C           2.1045   -0.0619    0.0000 C.3     1  UNL1       -0.0530
      8 C           6.6789   -0.0619    0.0000 C.3     1  UNL1       -0.0530
      9 C           2.0000    0.9327    0.0000 C.3     1  UNL1       -0.0531
     10 C           6.7834    0.9327    0.0000 C.3     1  UNL1       -0.0531
     11 C           2.3090    1.8837    0.0000 C.3     1  UNL1       -0.0531
     12 C           6.4744    1.8837    0.0000 C.3     1  UNL1       -0.0531
     13 C           2.9782    2.6268    0.0000 C.3     1  UNL1       -0.0531
     14 C           5.8052    2.6268    0.0000 C.3     1  UNL1       -0.0531
     15 C           3.8917    3.0336    0.0000 C.3     1  UNL1       -0.0531
     16 C           4.8917    3.0336    0.0000 C.3     1  UNL1       -0.0531
     17 H           4.8735   -2.1138    0.0000 H       1  UNL1        0.0593
     18 H           2.8878   -1.8442    0.0000 H       1  UNL1        0.0290
     19 H           3.6657   -0.9493    0.0000 H       1  UNL1        0.0290
     20 H           5.2622   -2.1263    0.0000 H       1  UNL1        0.0290
     21 H           5.1177   -0.9493    0.0000 H       1  UNL1        0.0290
     22 H           1.9906   -1.0142    0.0000 H       1  UNL1        0.0266
     23 H           3.0653   -0.5130    0.0000 H       1  UNL1        0.0266
     24 H           6.3288   -1.5295    0.0000 H       1  UNL1        0.0266
     25 H           5.7181   -0.5130    0.0000 H       1  UNL1        0.0266
     26 H           1.5086    0.1090    0.0000 H       1  UNL1        0.0265
     27 H           2.6942    0.1297    0.0000 H       1  UNL1        0.0265
     28 H           7.0606   -0.5504    0.0000 H       1  UNL1        0.0265
     29 H           6.0892    0.1297    0.0000 H       1  UNL1        0.0265
     30 H           1.5250    1.3312    0.0000 H       1  UNL1        0.0265
     31 H           2.6166    0.8678    0.0000 H       1  UNL1        0.0265
     32 H           7.3308    0.6416    0.0000 H       1  UNL1        0.0265
     33 H           6.1668    0.8678    0.0000 H       1  UNL1        0.0265
     34 H           2.0372    2.4410    0.0000 H       1  UNL1        0.0265
     35 H           2.8460    1.5737    0.0000 H       1  UNL1        0.0265
     36 H           7.0929    1.8405    0.0000 H       1  UNL1        0.0265
     37 H           5.9374    1.5737    0.0000 H       1  UNL1        0.0265
     38 H           2.9565    3.2465    0.0000 H       1  UNL1        0.0265
     39 H           3.3426    2.1253    0.0000 H       1  UNL1        0.0265
     40 H           6.3878    2.8389    0.0000 H       1  UNL1        0.0265
     41 H           5.4408    2.1253    0.0000 H       1  UNL1        0.0265
     42 H           4.1240    3.6084    0.0000 H       1  UNL1        0.0265
     43 H           4.0206    2.4271    0.0000 H       1  UNL1        0.0265
     44 H           5.3377    3.4643    0.0000 H       1  UNL1        0.0265
     45 H           4.7628    2.4271    0.0000 H       1  UNL1        0.0265
     46 H           3.8548   -3.0336    0.0000 H       1  UNL1        0.2098
@<TRIPOS>BOND
     1     1     2    1
     2     1    46    1
     3     2     3    1
     4     2     4    1
     5     2    17    1
     6     3     5    1
     7     3    18    1
     8     3    19    1
     9     4     6    1
    10     4    20    1
    11     4    21    1
    12     5     7    1
    13     5    22    1
    14     5    23    1
    15     6     8    1
    16     6    24    1
    17     6    25    1
    18     7     9    1
    19     7    26    1
    20     7    27    1
    21     8    10    1
    22     8    28    1
    23     8    29    1
    24     9    11    1
    25     9    30    1
    26     9    31    1
    27    10    12    1
    28    10    32    1
    29    10    33    1
    30    11    13    1
    31    11    34    1
    32    11    35    1
    33    12    14    1
    34    12    36    1
    35    12    37    1
    36    13    15    1
    37    13    38    1
    38    13    39    1
    39    14    16    1
    40    14    40    1
    41    14    41    1
    42    15    16    1
    43    15    42    1
    44    15    43    1
    45    16    44    1
    46    16    45    1
