@<TRIPOS>MOLECULE
IMPHY007305
 42 43 0 0 0
SMALL
GASTEIGER

@<TRIPOS>ATOM
      1 O           4.2690   -0.3450    0.0000 O.3     1  UNL1       -0.3313
      2 O           4.2690   -3.3450    0.0000 O.3     1  UNL1       -0.3864
      3 O           6.0010   -0.3450    0.0000 O.3     1  UNL1       -0.4606
      4 O           2.5369   -2.3450    0.0000 O.3     1  UNL1       -0.3865
      5 O           6.0010   -2.3450    0.0000 O.3     1  UNL1       -0.3829
      6 O           2.5369    0.6550    0.0000 O.3     1  UNL1       -0.3924
      7 O           4.2690    2.6550    0.0000 O.3     1  UNL1       -0.4949
      8 O           7.7331    2.6550    0.0000 O.3     1  UNL1       -0.4949
      9 C           4.2690   -2.3450    0.0000 C.3     1  UNL1        0.1152
     10 C           3.4030   -1.8450    0.0000 C.3     1  UNL1        0.1120
     11 C           5.1350   -1.8450    0.0000 C.3     1  UNL1        0.1454
     12 C           3.4030   -0.8450    0.0000 C.3     1  UNL1        0.1140
     13 C           5.1350   -0.8450    0.0000 C.3     1  UNL1        0.2308
     14 C           2.5369   -0.3450    0.0000 C.3     1  UNL1        0.0731
     15 C           6.0010    0.6550    0.0000 C.ar    1  UNL1        0.1309
     16 C           6.8671    1.1550    0.0000 C.ar    1  UNL1        0.0221
     17 C           5.1350    1.1550    0.0000 C.ar    1  UNL1        0.0221
     18 C           5.1350    2.1550    0.0000 C.ar    1  UNL1        0.1270
     19 C           6.8671    2.1550    0.0000 C.ar    1  UNL1        0.1270
     20 C           6.0010    2.6550    0.0000 C.ar    1  UNL1        0.0220
     21 C           4.2690    3.6550    0.0000 C.3     1  UNL1        0.0788
     22 C           7.7331    3.6550    0.0000 C.3     1  UNL1        0.0788
     23 H           4.8059   -2.6550    0.0000 H       1  UNL1        0.0648
     24 H           3.4030   -2.4650    0.0000 H       1  UNL1        0.0647
     25 H           5.6720   -1.5350    0.0000 H       1  UNL1        0.0683
     26 H           3.4030   -0.2250    0.0000 H       1  UNL1        0.0647
     27 H           5.1350   -0.2250    0.0000 H       1  UNL1        0.1084
     28 H           1.9264   -0.2373    0.0000 H       1  UNL1        0.0584
     29 H           2.3249   -0.9276    0.0000 H       1  UNL1        0.0584
     30 H           3.7320   -3.6550    0.0000 H       1  UNL1        0.2100
     31 H           2.0000   -2.0350    0.0000 H       1  UNL1        0.2100
     32 H           6.5380   -2.0350    0.0000 H       1  UNL1        0.2102
     33 H           2.0000    0.9650    0.0000 H       1  UNL1        0.2095
     34 H           7.4040    0.8450    0.0000 H       1  UNL1        0.0691
     35 H           4.5981    0.8450    0.0000 H       1  UNL1        0.0691
     36 H           6.0010    3.2750    0.0000 H       1  UNL1        0.0691
     37 H           4.8890    3.6550    0.0000 H       1  UNL1        0.0660
     38 H           4.2690    4.2750    0.0000 H       1  UNL1        0.0660
     39 H           3.6490    3.6550    0.0000 H       1  UNL1        0.0660
     40 H           8.3531    3.6550    0.0000 H       1  UNL1        0.0660
     41 H           7.7331    4.2750    0.0000 H       1  UNL1        0.0660
     42 H           7.1131    3.6550    0.0000 H       1  UNL1        0.0660
@<TRIPOS>BOND
     1     1    12    1
     2     1    13    1
     3     9     2    1
     4     2    30    1
     5    13     3    1
     6     3    15    1
     7    10     4    1
     8     4    31    1
     9    11     5    1
    10     5    32    1
    11     6    14    1
    12     6    33    1
    13     7    18    1
    14     7    21    1
    15     8    19    1
    16     8    22    1
    17     9    10    1
    18     9    11    1
    19     9    23    1
    20    10    12    1
    21    10    24    1
    22    11    13    1
    23    11    25    1
    24    12    14    1
    25    12    26    1
    26    13    27    1
    27    14    28    1
    28    14    29    1
    29    15    16   ar
    30    15    17   ar
    31    16    19   ar
    32    16    34    1
    33    17    18   ar
    34    17    35    1
    35    18    20   ar
    36    19    20   ar
    37    20    36    1
    38    21    37    1
    39    21    38    1
    40    21    39    1
    41    22    40    1
    42    22    41    1
    43    22    42    1
