@<TRIPOS>MOLECULE
IMPHY008676
 30 30 0 0 0
SMALL
GASTEIGER

@<TRIPOS>ATOM
      1 O           3.7320    1.0000    0.0000 O.3     1  UNL1       -0.4886
      2 O           5.4641    2.0000    0.0000 O.3     1  UNL1       -0.4914
      3 C           6.3301   -0.5000    0.0000 C.ar    1  UNL1       -0.0400
      4 C           4.5981    0.5000    0.0000 C.ar    1  UNL1        0.1619
      5 C           5.4641    1.0000    0.0000 C.ar    1  UNL1        0.1618
      6 C           6.3301    0.5000    0.0000 C.ar    1  UNL1       -0.0128
      7 C           7.1962   -1.0000    0.0000 C.3     1  UNL1       -0.0096
      8 C           5.4641   -1.0000    0.0000 C.ar    1  UNL1       -0.0546
      9 C           4.5981   -0.5000    0.0000 C.ar    1  UNL1       -0.0160
     10 C           2.8660    0.5000    0.0000 C.3     1  UNL1        0.0870
     11 C           7.1962   -2.0000    0.0000 C.2     1  UNL1       -0.0868
     12 C           2.0000    1.0000    0.0000 C.3     1  UNL1       -0.0307
     13 C           6.3301    2.5000    0.0000 C.3     1  UNL1        0.0790
     14 C           8.0622   -2.5000    0.0000 C.2     1  UNL1       -0.1023
     15 H           6.8671    0.8100    0.0000 H       1  UNL1        0.0658
     16 H           7.8067   -1.1077    0.0000 H       1  UNL1        0.0355
     17 H           7.4082   -0.4174    0.0000 H       1  UNL1        0.0355
     18 H           5.4641   -1.6200    0.0000 H       1  UNL1        0.0622
     19 H           4.0611   -0.8100    0.0000 H       1  UNL1        0.0655
     20 H           2.4675    0.0251    0.0000 H       1  UNL1        0.0694
     21 H           3.2646    0.0251    0.0000 H       1  UNL1        0.0694
     22 H           6.6592   -2.3100    0.0000 H       1  UNL1        0.0570
     23 H           2.3100    1.5369    0.0000 H       1  UNL1        0.0262
     24 H           1.4631    1.3100    0.0000 H       1  UNL1        0.0262
     25 H           1.6900    0.4631    0.0000 H       1  UNL1        0.0262
     26 H           6.6401    1.9631    0.0000 H       1  UNL1        0.0660
     27 H           6.8671    2.8100    0.0000 H       1  UNL1        0.0660
     28 H           6.0201    3.0369    0.0000 H       1  UNL1        0.0660
     29 H           8.0622   -3.1200    0.0000 H       1  UNL1        0.0532
     30 H           8.5991   -2.1900    0.0000 H       1  UNL1        0.0532
@<TRIPOS>BOND
     1     1     4    1
     2     1    10    1
     3     2     5    1
     4     2    13    1
     5     3     6   ar
     6     3     7    1
     7     3     8   ar
     8     4     5   ar
     9     4     9   ar
    10     5     6   ar
    11     6    15    1
    12     7    11    1
    13     7    16    1
    14     7    17    1
    15     8     9   ar
    16     8    18    1
    17     9    19    1
    18    10    12    1
    19    10    20    1
    20    10    21    1
    21    11    14    2
    22    11    22    1
    23    12    23    1
    24    12    24    1
    25    12    25    1
    26    13    26    1
    27    13    27    1
    28    13    28    1
    29    14    29    1
    30    14    30    1
