@<TRIPOS>MOLECULE
IMPHY014172
 82 87 0 0 0
SMALL
GASTEIGER

@<TRIPOS>ATOM
      1 O           9.9036   -1.0110    0.0000 O.3     1  UNL1       -0.3914
      2 O           9.2156    1.5912    0.0000 O.3     1  UNL1       -0.3672
      3 O           2.0000   -3.5428    0.0000 O.2     1  UNL1       -0.2968
      4 O           9.2714    4.3019    0.0000 O.3     1  UNL1       -0.3866
      5 C           5.5301   -1.5186    0.0000 C.3     1  UNL1       -0.0194
      6 C           4.6641   -2.0186    0.0000 C.3     1  UNL1       -0.0187
      7 C           4.6638   -1.0182    0.0000 C.3     1  UNL1       -0.0401
      8 C           6.3961   -2.0186    0.0000 C.3     1  UNL1       -0.0288
      9 C           7.3062   -1.5118    0.0000 C.3     1  UNL1       -0.0206
     10 C           4.6641   -3.0186    0.0000 C.3     1  UNL1       -0.0230
     11 C           7.3142   -0.4702    0.0000 C.3     1  UNL1       -0.0185
     12 C           5.5141   -0.4771    0.0000 C.3     1  UNL1       -0.0460
     13 C           3.7702   -1.4840    0.0000 C.3     1  UNL1       -0.0399
     14 C           6.3961   -3.0186    0.0000 C.3     1  UNL1       -0.0489
     15 C           6.4121    0.0506    0.0000 C.3     1  UNL1       -0.0462
     16 C           5.5301   -3.5186    0.0000 C.3     1  UNL1       -0.0485
     17 C           8.3022   -0.1604    0.0000 C.3     1  UNL1        0.0198
     18 C           3.7702   -3.5533    0.0000 C.3     1  UNL1        0.0267
     19 C           8.2893   -1.8368    0.0000 C.3     1  UNL1       -0.0203
     20 C           8.9036   -1.0033    0.0000 C.3     1  UNL1        0.0617
     21 C           7.2984   -2.5118    0.0000 C.3     1  UNL1       -0.0587
     22 C           2.8641   -1.9978    0.0000 C.3     1  UNL1        0.0069
     23 C           7.3219    0.5298    0.0000 C.3     1  UNL1       -0.0586
     24 C           8.6202    0.7877    0.0000 C.3     1  UNL1        0.0730
     25 C           2.8641   -3.0394    0.0000 C.2     1  UNL1        0.1392
     26 C           3.2802   -4.4250    0.0000 C.3     1  UNL1       -0.0528
     27 C           4.2801   -4.4135    0.0000 C.3     1  UNL1       -0.0528
     28 C           7.6721    1.1057    0.0000 C.3     1  UNL1       -0.0212
     29 C           9.4236    0.1923    0.0000 C.3     1  UNL1       -0.0354
     30 C           7.6815    2.1056    0.0000 C.3     1  UNL1       -0.0213
     31 C           8.6355    2.4057    0.0000 C.3     1  UNL1        0.0876
     32 C           8.9534    3.3538    0.0000 C.3     1  UNL1        0.0865
     33 C           8.0054    3.6718    0.0000 C.3     1  UNL1       -0.0339
     34 C           9.9015    3.0358    0.0000 C.3     1  UNL1       -0.0339
     35 H           4.8759   -0.4356    0.0000 H       1  UNL1        0.0276
     36 H           4.0532   -0.9106    0.0000 H       1  UNL1        0.0276
     37 H           7.1290   -2.4493    0.0000 H       1  UNL1        0.0312
     38 H           4.6706   -3.8686    0.0000 H       1  UNL1        0.0316
     39 H           5.2960    0.1033    0.0000 H       1  UNL1        0.0271
     40 H           4.9049   -0.5926    0.0000 H       1  UNL1        0.0271
     41 H           4.1748   -1.0142    0.0000 H       1  UNL1        0.0275
     42 H           3.3765   -1.0050    0.0000 H       1  UNL1        0.0275
     43 H           6.6082   -3.6012    0.0000 H       1  UNL1        0.0268
     44 H           7.0067   -2.9110    0.0000 H       1  UNL1        0.0268
     45 H           6.8094    0.5266    0.0000 H       1  UNL1        0.0271
     46 H           6.0111    0.5235    0.0000 H       1  UNL1        0.0271
     47 H           5.1316   -3.9936    0.0000 H       1  UNL1        0.0268
     48 H           5.9286   -3.9936    0.0000 H       1  UNL1        0.0268
     49 H           9.1429   -0.0350    0.0000 H       1  UNL1        0.0359
     50 H           8.0339   -2.4018    0.0000 H       1  UNL1        0.0296
     51 H           8.8243   -2.1502    0.0000 H       1  UNL1        0.0296
     52 H           9.1811   -1.5577    0.0000 H       1  UNL1        0.0597
     53 H           6.6785   -2.5070    0.0000 H       1  UNL1        0.0235
     54 H           7.2937   -3.1317    0.0000 H       1  UNL1        0.0235
     55 H           7.9184   -2.5165    0.0000 H       1  UNL1        0.0235
     56 H           2.6550   -1.4141    0.0000 H       1  UNL1        0.0342
     57 H           2.2532   -2.1039    0.0000 H       1  UNL1        0.0342
     58 H           7.9419    0.5250    0.0000 H       1  UNL1        0.0235
     59 H           7.3267    1.1498    0.0000 H       1  UNL1        0.0235
     60 H           6.7019    0.5346    0.0000 H       1  UNL1        0.0235
     61 H           2.7397   -4.1213    0.0000 H       1  UNL1        0.0239
     62 H           2.9764   -4.9655    0.0000 H       1  UNL1        0.0239
     63 H           3.8207   -4.7288    0.0000 H       1  UNL1        0.0239
     64 H           3.7468   -4.7297    0.0000 H       1  UNL1        0.0239
     65 H           4.5963   -4.9468    0.0000 H       1  UNL1        0.0239
     66 H           4.8134   -4.0973    0.0000 H       1  UNL1        0.0239
     67 H           7.0561    1.1763    0.0000 H       1  UNL1        0.0294
     68 H           7.5375    0.5005    0.0000 H       1  UNL1        0.0294
     69 H          10.2095   -1.5503    0.0000 H       1  UNL1        0.2098
     70 H           9.0545   -0.3058    0.0000 H       1  UNL1        0.0257
     71 H           9.9218   -0.1768    0.0000 H       1  UNL1        0.0257
     72 H           9.7928    0.6904    0.0000 H       1  UNL1        0.0257
     73 H           7.5584    2.7133    0.0000 H       1  UNL1        0.0292
     74 H           7.0644    2.0467    0.0000 H       1  UNL1        0.0292
     75 H           9.2487    2.4969    0.0000 H       1  UNL1        0.0625
     76 H           8.2025    4.2596    0.0000 H       1  UNL1        0.0258
     77 H           7.4175    3.8689    0.0000 H       1  UNL1        0.0258
     78 H           7.8082    3.0839    0.0000 H       1  UNL1        0.0258
     79 H           9.7044    2.4480    0.0000 H       1  UNL1        0.0258
     80 H          10.4894    2.8386    0.0000 H       1  UNL1        0.0258
     81 H          10.0987    3.6236    0.0000 H       1  UNL1        0.0258
     82 H           9.8791    4.4250    0.0000 H       1  UNL1        0.2102
@<TRIPOS>BOND
     1    20     1    1
     2     1    69    1
     3     2    24    1
     4     2    31    1
     5     3    25    2
     6     4    32    1
     7     4    82    1
     8     5     6    1
     9     5     7    1
    10     5     8    1
    11     5    12    1
    12     6     7    1
    13     6    10    1
    14     6    13    1
    15     7    35    1
    16     7    36    1
    17     8     9    1
    18     8    14    1
    19     8    37    1
    20     9    11    1
    21     9    19    1
    22     9    21    1
    23    10    16    1
    24    10    18    1
    25    10    38    1
    26    11    15    1
    27    11    17    1
    28    11    23    1
    29    12    15    1
    30    12    39    1
    31    12    40    1
    32    13    22    1
    33    13    41    1
    34    13    42    1
    35    14    16    1
    36    14    43    1
    37    14    44    1
    38    15    45    1
    39    15    46    1
    40    16    47    1
    41    16    48    1
    42    17    20    1
    43    17    24    1
    44    17    49    1
    45    18    25    1
    46    18    26    1
    47    18    27    1
    48    19    20    1
    49    19    50    1
    50    19    51    1
    51    20    52    1
    52    21    53    1
    53    21    54    1
    54    21    55    1
    55    22    25    1
    56    22    56    1
    57    22    57    1
    58    23    58    1
    59    23    59    1
    60    23    60    1
    61    24    28    1
    62    24    29    1
    63    26    61    1
    64    26    62    1
    65    26    63    1
    66    27    64    1
    67    27    65    1
    68    27    66    1
    69    28    30    1
    70    28    67    1
    71    28    68    1
    72    29    70    1
    73    29    71    1
    74    29    72    1
    75    30    31    1
    76    30    73    1
    77    30    74    1
    78    31    32    1
    79    31    75    1
    80    32    33    1
    81    32    34    1
    82    33    76    1
    83    33    77    1
    84    33    78    1
    85    34    79    1
    86    34    80    1
    87    34    81    1
