@<TRIPOS>MOLECULE
IMPHY000252
 85 88 0 0 0
SMALL
GASTEIGER

@<TRIPOS>ATOM
      1 O           8.5991   -2.7500    0.0000 O.3     1  UNL1       -0.3389
      2 O           8.5991    0.2500    0.0000 O.3     1  UNL1       -0.3301
      3 O           6.8671   -2.7500    0.0000 O.3     1  UNL1       -0.3431
      4 O          10.3312   -1.7500    0.0000 O.3     1  UNL1       -0.4528
      5 O           6.8671   -1.7500    0.0000 O.3     1  UNL1       -0.3829
      6 O           6.8671    0.2500    0.0000 O.3     1  UNL1       -0.4322
      7 O           8.5991   -4.7500    0.0000 O.3     1  UNL1       -0.3841
      8 O           6.8671   -5.7500    0.0000 O.3     1  UNL1       -0.3864
      9 O           5.1350   -4.7500    0.0000 O.3     1  UNL1       -0.3866
     10 O          10.3312    1.2500    0.0000 O.3     1  UNL1       -0.3923
     11 O          11.1972   -0.2500    0.0000 O.2     1  UNL1       -0.2456
     12 O           7.7331    1.7500    0.0000 O.2     1  UNL1       -0.2508
     13 O           4.2690    5.7500    0.0000 O.3     1  UNL1       -0.5033
     14 O           2.5369    4.7500    0.0000 O.3     1  UNL1       -0.5033
     15 O          14.6613   -4.2500    0.0000 O.3     1  UNL1       -0.5033
     16 O          16.3933   -3.2500    0.0000 O.3     1  UNL1       -0.4915
     17 C           8.5991   -1.7500    0.0000 C.3     1  UNL1        0.1327
     18 C           9.4651   -1.2500    0.0000 C.3     1  UNL1        0.1602
     19 C           7.7331   -1.2500    0.0000 C.3     1  UNL1        0.1469
     20 C           9.4651   -0.2500    0.0000 C.3     1  UNL1        0.1250
     21 C           7.7331   -3.2500    0.0000 C.3     1  UNL1        0.1884
     22 C           7.7331   -4.2500    0.0000 C.3     1  UNL1        0.1341
     23 C           6.8671   -4.7500    0.0000 C.3     1  UNL1        0.1140
     24 C           7.7331   -0.2500    0.0000 C.3     1  UNL1        0.2338
     25 C           6.0010   -4.2500    0.0000 C.3     1  UNL1        0.1095
     26 C           6.0010   -3.2500    0.0000 C.3     1  UNL1        0.0873
     27 C          10.3312    0.2500    0.0000 C.3     1  UNL1        0.0741
     28 C           5.1350   -2.7500    0.0000 C.3     1  UNL1       -0.0361
     29 C          11.1972   -1.2500    0.0000 C.2     1  UNL1        0.3324
     30 C           6.8671    1.2500    0.0000 C.2     1  UNL1        0.3096
     31 C           6.0010    1.7500    0.0000 C.3     1  UNL1        0.0490
     32 C          12.0632   -1.7500    0.0000 C.2     1  UNL1        0.0231
     33 C           6.0010    2.7500    0.0000 C.3     1  UNL1       -0.0175
     34 C          12.9292   -1.2500    0.0000 C.2     1  UNL1       -0.0477
     35 C           5.1350    3.2500    0.0000 C.ar    1  UNL1       -0.0432
     36 C          13.7953   -1.7500    0.0000 C.ar    1  UNL1       -0.0211
     37 C           5.1350    4.2500    0.0000 C.ar    1  UNL1       -0.0133
     38 C           4.2690    2.7500    0.0000 C.ar    1  UNL1       -0.0549
     39 C           4.2690    4.7500    0.0000 C.ar    1  UNL1        0.1585
     40 C           3.4030    3.2500    0.0000 C.ar    1  UNL1       -0.0163
     41 C          13.7953   -2.7500    0.0000 C.ar    1  UNL1       -0.0094
     42 C          14.6613   -1.2500    0.0000 C.ar    1  UNL1       -0.0509
     43 C           3.4030    4.2500    0.0000 C.ar    1  UNL1        0.1582
     44 C          14.6613   -3.2500    0.0000 C.ar    1  UNL1        0.1590
     45 C          15.5273   -1.7500    0.0000 C.ar    1  UNL1       -0.0158
     46 C          15.5273   -2.7500    0.0000 C.ar    1  UNL1        0.1613
     47 C          17.2594   -2.7500    0.0000 C.3     1  UNL1        0.0790
     48 H           8.0622   -2.0600    0.0000 H       1  UNL1        0.0663
     49 H          10.0021   -0.9400    0.0000 H       1  UNL1        0.0788
     50 H           7.1962   -0.9400    0.0000 H       1  UNL1        0.0683
     51 H           9.4651    0.3700    0.0000 H       1  UNL1        0.0658
     52 H           8.2700   -3.5600    0.0000 H       1  UNL1        0.0938
     53 H           7.7331   -4.8700    0.0000 H       1  UNL1        0.0671
     54 H           6.3301   -5.0600    0.0000 H       1  UNL1        0.0648
     55 H           7.7331    0.3700    0.0000 H       1  UNL1        0.1085
     56 H           5.4641   -3.9400    0.0000 H       1  UNL1        0.0646
     57 H           6.0010   -2.6300    0.0000 H       1  UNL1        0.0621
     58 H          10.5432   -0.3326    0.0000 H       1  UNL1        0.0584
     59 H          10.9417    0.3577    0.0000 H       1  UNL1        0.0584
     60 H           5.4450   -2.2131    0.0000 H       1  UNL1        0.0255
     61 H           4.5981   -2.4400    0.0000 H       1  UNL1        0.0255
     62 H           4.8250   -3.2869    0.0000 H       1  UNL1        0.0255
     63 H           6.3301   -1.4400    0.0000 H       1  UNL1        0.2102
     64 H           8.5991   -5.3700    0.0000 H       1  UNL1        0.2101
     65 H           6.3301   -6.0600    0.0000 H       1  UNL1        0.2100
     66 H           4.5981   -4.4400    0.0000 H       1  UNL1        0.2100
     67 H          10.8681    1.5600    0.0000 H       1  UNL1        0.2095
     68 H           5.3905    1.8577    0.0000 H       1  UNL1        0.0381
     69 H           5.7890    1.1674    0.0000 H       1  UNL1        0.0381
     70 H          12.0632   -2.3700    0.0000 H       1  UNL1        0.0689
     71 H           6.6116    2.6423    0.0000 H       1  UNL1        0.0318
     72 H           6.2131    3.3326    0.0000 H       1  UNL1        0.0318
     73 H          12.9292   -0.6300    0.0000 H       1  UNL1        0.0626
     74 H           5.6720    4.5600    0.0000 H       1  UNL1        0.0658
     75 H           4.2690    2.1300    0.0000 H       1  UNL1        0.0621
     76 H           2.8660    2.9400    0.0000 H       1  UNL1        0.0655
     77 H          13.2583   -3.0600    0.0000 H       1  UNL1        0.0661
     78 H          14.6613   -0.6300    0.0000 H       1  UNL1        0.0625
     79 H          16.0643   -1.4400    0.0000 H       1  UNL1        0.0655
     80 H           4.8059    6.0600    0.0000 H       1  UNL1        0.2923
     81 H           2.0000    4.4400    0.0000 H       1  UNL1        0.2923
     82 H          15.1982   -4.5600    0.0000 H       1  UNL1        0.2923
     83 H          17.5694   -3.2869    0.0000 H       1  UNL1        0.0660
     84 H          17.7963   -2.4400    0.0000 H       1  UNL1        0.0660
     85 H          16.9494   -2.2131    0.0000 H       1  UNL1        0.0660
@<TRIPOS>BOND
     1    17     1    1
     2    21     1    1
     3     2    20    1
     4     2    24    1
     5     3    21    1
     6     3    26    1
     7    18     4    1
     8     4    29    1
     9    19     5    1
    10     5    63    1
    11    24     6    1
    12     6    30    1
    13    22     7    1
    14     7    64    1
    15    23     8    1
    16     8    65    1
    17    25     9    1
    18     9    66    1
    19    10    27    1
    20    10    67    1
    21    11    29    2
    22    12    30    2
    23    13    39    1
    24    13    80    1
    25    14    43    1
    26    14    81    1
    27    15    44    1
    28    15    82    1
    29    16    46    1
    30    16    47    1
    31    17    18    1
    32    17    19    1
    33    17    48    1
    34    18    20    1
    35    18    49    1
    36    19    24    1
    37    19    50    1
    38    20    27    1
    39    20    51    1
    40    21    22    1
    41    21    52    1
    42    22    23    1
    43    22    53    1
    44    23    25    1
    45    23    54    1
    46    24    55    1
    47    25    26    1
    48    25    56    1
    49    26    28    1
    50    26    57    1
    51    27    58    1
    52    27    59    1
    53    28    60    1
    54    28    61    1
    55    28    62    1
    56    29    32    1
    57    30    31    1
    58    31    33    1
    59    31    68    1
    60    31    69    1
    61    32    34    2
    62    32    70    1
    63    33    35    1
    64    33    71    1
    65    33    72    1
    66    34    36    1
    67    34    73    1
    68    35    37   ar
    69    35    38   ar
    70    36    41   ar
    71    36    42   ar
    72    37    39   ar
    73    37    74    1
    74    38    40   ar
    75    38    75    1
    76    39    43   ar
    77    40    43   ar
    78    40    76    1
    79    41    44   ar
    80    41    77    1
    81    42    45   ar
    82    42    78    1
    83    44    46   ar
    84    45    46   ar
    85    45    79    1
    86    47    83    1
    87    47    84    1
    88    47    85    1
