@<TRIPOS>MOLECULE
IMPHY005422
 25 27 0 0 0
SMALL
GASTEIGER

@<TRIPOS>ATOM
      1 O           6.4783   -0.8793    0.0000 O.2     1  UNL1       -0.4449
      2 O           4.6660    1.9254    0.0000 O.3     1  UNL1       -0.4937
      3 O           2.9176   -2.1092    0.0000 O.3     1  UNL1       -0.5046
      4 N           4.6660   -1.0746    0.0000 N.ar    1  UNL1       -0.2082
      5 C           3.8000    0.4254    0.0000 C.ar    1  UNL1        0.0464
      6 C           5.5321    0.4254    0.0000 C.ar    1  UNL1        0.0820
      7 C           4.6660    0.9254    0.0000 C.ar    1  UNL1        0.1417
      8 C           3.8000   -0.5746    0.0000 C.ar    1  UNL1        0.1196
      9 C           5.5321   -0.5746    0.0000 C.ar    1  UNL1        0.2312
     10 C           2.9061    0.9601    0.0000 C.ar    1  UNL1       -0.0488
     11 C           2.9061   -1.1093    0.0000 C.ar    1  UNL1        0.1429
     12 C           6.4783    0.7301    0.0000 C.ar    1  UNL1       -0.0109
     13 C           2.0000    0.4462    0.0000 C.ar    1  UNL1       -0.0575
     14 C           2.0000   -0.5954    0.0000 C.ar    1  UNL1       -0.0180
     15 C           7.0619   -0.0746    0.0000 C.ar    1  UNL1        0.0952
     16 C           5.5321    2.4254    0.0000 C.3     1  UNL1        0.0788
     17 H           2.9132    1.5800    0.0000 H       1  UNL1        0.0625
     18 H           6.6709    1.3194    0.0000 H       1  UNL1        0.0657
     19 H           1.4643    0.7583    0.0000 H       1  UNL1        0.0619
     20 H           1.4643   -0.9075    0.0000 H       1  UNL1        0.0655
     21 H           7.6819   -0.0746    0.0000 H       1  UNL1        0.1030
     22 H           5.8421    1.8885    0.0000 H       1  UNL1        0.0660
     23 H           6.0690    2.7354    0.0000 H       1  UNL1        0.0660
     24 H           5.2221    2.9623    0.0000 H       1  UNL1        0.0660
     25 H           2.3843   -2.4254    0.0000 H       1  UNL1        0.2922
@<TRIPOS>BOND
     1     1     9   ar
     2     1    15   ar
     3     2     7    1
     4     2    16    1
     5     3    11    1
     6     3    25    1
     7     4     8   ar
     8     4     9   ar
     9     5     7   ar
    10     5     8   ar
    11     5    10   ar
    12     6     7   ar
    13     6     9   ar
    14     6    12   ar
    15     8    11   ar
    16    10    13   ar
    17    10    17    1
    18    11    14   ar
    19    12    15   ar
    20    12    18    1
    21    13    14   ar
    22    13    19    1
    23    14    20    1
    24    15    21    1
    25    16    22    1
    26    16    23    1
    27    16    24    1
