@<TRIPOS>MOLECULE
IMPHY002664
 33 32 0 0 0
SMALL
GASTEIGER

@<TRIPOS>ATOM
      1 S1          3.4030   -1.1550    0.0000 S.3     1  <1>        -0.1617
      2 O1          6.0010   -0.6550    0.0000 O.2     1  <1>        -0.2758
      3 O2         10.3312    0.8450    0.0000 O.3     1  <1>        -0.4795
      4 O3          2.5369    0.3450    0.0000 O.3     1  <1>        -0.4793
      5 O4          9.4651   -0.6550    0.0000 O.2     1  <1>        -0.2493
      6 O5          3.4030    1.8450    0.0000 O.2     1  <1>        -0.2489
      7 N1          5.1350    0.8450    0.0000 N.am    1  <1>        -0.3017
      8 N2          8.5991    1.8450    0.0000 N.3     1  <1>        -0.3184
      9 C1          7.7331    0.3450    0.0000 C.3     1  <1>        -0.0191
     10 C2          6.8671    0.8450    0.0000 C.3     1  <1>         0.0259
     11 C3          8.5991    0.8450    0.0000 C.3     1  <1>         0.1037
     12 C4          4.2690    0.3450    0.0000 C.3     1  <1>         0.1292
     13 C5          6.0010    0.3450    0.0000 C.2     1  <1>         0.2137
     14 C6          4.2690   -0.6550    0.0000 C.3     1  <1>         0.0223
     15 C7          9.4651    0.3450    0.0000 C.2     1  <1>         0.3217
     16 C8          3.4030    0.8450    0.0000 C.2     1  <1>         0.3261
     17 C9          3.4030   -2.1550    0.0000 C.3     1  <1>        -0.0180
     18 H1          7.3346   -0.1299    0.0000 H       1  <1>         0.0290
     19 H2          8.1316   -0.1299    0.0000 H       1  <1>         0.0290
     20 H3          7.2656    1.3200    0.0000 H       1  <1>         0.0359
     21 H4          6.4685    1.3200    0.0000 H       1  <1>         0.0359
     22 H5          8.0622    1.1550    0.0000 H       1  <1>         0.0574
     23 H6          4.2690    0.9650    0.0000 H       1  <1>         0.0623
     24 H7          5.1350    1.4650    0.0000 H       1  <1>         0.1495
     25 H8          4.4810   -1.2376    0.0000 H       1  <1>         0.0400
     26 H9          4.8796   -0.5473    0.0000 H       1  <1>         0.0400
     27 H10         9.1360    2.1550    0.0000 H       1  <1>         0.1190
     28 H11         8.0622    2.1550    0.0000 H       1  <1>         0.1190
     29 H12         2.7830   -2.1550    0.0000 H       1  <1>         0.0340
     30 H13         3.4030   -2.7750    0.0000 H       1  <1>         0.0340
     31 H14         4.0230   -2.1550    0.0000 H       1  <1>         0.0340
     32 H15        10.8681    0.5350    0.0000 H       1  <1>         0.2951
     33 H16         2.0000    0.6550    0.0000 H       1  <1>         0.2951
@<TRIPOS>BOND
     1     1    14    1
     2     1    17    1
     3     2    13    2
     4     3    15    1
     5     3    32    1
     6     4    16    1
     7     4    33    1
     8     5    15    2
     9     6    16    2
    10     7    12    1
    11     7    13   am
    12     7    24    1
    13     8    11    1
    14     8    27    1
    15     8    28    1
    16     9    10    1
    17     9    11    1
    18     9    18    1
    19     9    19    1
    20    10    13    1
    21    10    20    1
    22    10    21    1
    23    11    15    1
    24    11    22    1
    25    12    14    1
    26    12    16    1
    27    12    23    1
    28    14    25    1
    29    14    26    1
    30    17    29    1
    31    17    30    1
    32    17    31    1
