@<TRIPOS>MOLECULE
IMPHY017811
 32 36 0 0 0
SMALL
GASTEIGER

@<TRIPOS>ATOM
      1 C           3.7841   -1.0000    0.0000 C.ar    1  UNL1       -0.0024
      2 C           3.7841    1.0000    0.0000 C.ar    1  UNL1       -0.0024
      3 C           4.6501    0.5000    0.0000 C.ar    1  UNL1       -0.0090
      4 C           4.6501   -0.5000    0.0000 C.ar    1  UNL1       -0.0090
      5 C           2.9180    0.5000    0.0000 C.ar    1  UNL1       -0.0090
      6 C           2.9180   -0.5000    0.0000 C.ar    1  UNL1       -0.0090
      7 C           3.7680   -2.0415    0.0000 C.ar    1  UNL1       -0.0167
      8 C           3.7680    2.0415    0.0000 C.ar    1  UNL1       -0.0167
      9 C           5.5601    1.0068    0.0000 C.ar    1  UNL1       -0.0534
     10 C           2.0080    1.0068    0.0000 C.ar    1  UNL1       -0.0534
     11 C           5.5601   -1.0068    0.0000 C.ar    1  UNL1       -0.0534
     12 C           2.0080   -1.0068    0.0000 C.ar    1  UNL1       -0.0534
     13 C           2.9021   -2.5693    0.0000 C.ar    1  UNL1       -0.0540
     14 C           4.6660   -2.5693    0.0000 C.ar    1  UNL1       -0.0540
     15 C           2.9021    2.5693    0.0000 C.ar    1  UNL1       -0.0540
     16 C           4.6660    2.5693    0.0000 C.ar    1  UNL1       -0.0540
     17 C           5.5681    2.0484    0.0000 C.ar    1  UNL1       -0.0606
     18 C           2.0000    2.0484    0.0000 C.ar    1  UNL1       -0.0606
     19 C           5.5681   -2.0484    0.0000 C.ar    1  UNL1       -0.0606
     20 C           2.0000   -2.0484    0.0000 C.ar    1  UNL1       -0.0606
     21 H           6.0934    0.6907    0.0000 H       1  UNL1        0.0624
     22 H           1.4747    0.6907    0.0000 H       1  UNL1        0.0624
     23 H           6.0934   -0.6907    0.0000 H       1  UNL1        0.0624
     24 H           1.4747   -0.6907    0.0000 H       1  UNL1        0.0624
     25 H           2.9094   -3.1892    0.0000 H       1  UNL1        0.0624
     26 H           4.6636   -3.1893    0.0000 H       1  UNL1        0.0624
     27 H           2.9094    3.1892    0.0000 H       1  UNL1        0.0624
     28 H           4.6636    3.1893    0.0000 H       1  UNL1        0.0624
     29 H           6.1062    2.3564    0.0000 H       1  UNL1        0.0618
     30 H           1.4619    2.3564    0.0000 H       1  UNL1        0.0618
     31 H           6.1062   -2.3564    0.0000 H       1  UNL1        0.0618
     32 H           1.4619   -2.3564    0.0000 H       1  UNL1        0.0618
@<TRIPOS>BOND
     1     1     4   ar
     2     1     6   ar
     3     1     7   ar
     4     2     3   ar
     5     2     5   ar
     6     2     8   ar
     7     3     4   ar
     8     3     9   ar
     9     4    11   ar
    10     5     6   ar
    11     5    10   ar
    12     6    12   ar
    13     7    13   ar
    14     7    14   ar
    15     8    15   ar
    16     8    16   ar
    17     9    17   ar
    18     9    21    1
    19    10    18   ar
    20    10    22    1
    21    11    19   ar
    22    11    23    1
    23    12    20   ar
    24    12    24    1
    25    13    20   ar
    26    13    25    1
    27    14    19   ar
    28    14    26    1
    29    15    18   ar
    30    15    27    1
    31    16    17   ar
    32    16    28    1
    33    17    29    1
    34    18    30    1
    35    19    31    1
    36    20    32    1
