@<TRIPOS>MOLECULE
IMPHY000360
 42 44 0 0 0
SMALL
GASTEIGER

@<TRIPOS>ATOM
      1 O           5.5301    0.6900    0.0000 O.3     1  UNL1       -0.4824
      2 O           8.1282    3.1900    0.0000 O.3     1  UNL1       -0.3865
      3 O           5.5301    2.6900    0.0000 O.3     1  UNL1       -0.3856
      4 O           7.3424   -0.5053    0.0000 O.2     1  UNL1       -0.4590
      5 O           3.7702   -0.2753    0.0000 O.2     1  UNL1       -0.4182
      6 O           5.5301   -3.3100    0.0000 O.3     1  UNL1       -0.4937
      7 O           2.0000   -0.2858    0.0000 O.2     1  UNL1       -0.2452
      8 C           7.2622    2.6900    0.0000 C.3     1  UNL1        0.0894
      9 C           6.3961    2.1900    0.0000 C.3     1  UNL1        0.1171
     10 C           6.3961    1.1900    0.0000 C.3     1  UNL1        0.1184
     11 C           6.7622    3.5560    0.0000 C.3     1  UNL1       -0.0338
     12 C           7.7622    1.8240    0.0000 C.3     1  UNL1       -0.0338
     13 C           5.5301   -0.3100    0.0000 C.ar    1  UNL1        0.2066
     14 C           6.3961   -0.8100    0.0000 C.ar    1  UNL1        0.1834
     15 C           4.6641   -0.8100    0.0000 C.ar    1  UNL1        0.1877
     16 C           6.3961   -1.8100    0.0000 C.ar    1  UNL1        0.0662
     17 C           4.6641   -1.8100    0.0000 C.ar    1  UNL1        0.0637
     18 C           5.5301   -2.3100    0.0000 C.ar    1  UNL1        0.1417
     19 C           7.3424   -2.1147    0.0000 C.ar    1  UNL1       -0.0125
     20 C           3.7702   -2.3447    0.0000 C.ar    1  UNL1       -0.0406
     21 C           7.9260   -1.3100    0.0000 C.ar    1  UNL1        0.0934
     22 C           2.8641   -1.8308    0.0000 C.ar    1  UNL1        0.0237
     23 C           2.8641   -0.7892    0.0000 C.ar    1  UNL1        0.3373
     24 C           6.3961   -3.8100    0.0000 C.3     1  UNL1        0.0788
     25 H           5.8592    1.8800    0.0000 H       1  UNL1        0.0656
     26 H           6.6082    0.6074    0.0000 H       1  UNL1        0.0724
     27 H           7.0067    1.2977    0.0000 H       1  UNL1        0.0724
     28 H           7.2991    3.8660    0.0000 H       1  UNL1        0.0258
     29 H           6.4522    4.0930    0.0000 H       1  UNL1        0.0258
     30 H           6.2252    3.2460    0.0000 H       1  UNL1        0.0258
     31 H           7.2252    1.5140    0.0000 H       1  UNL1        0.0258
     32 H           8.0722    1.2870    0.0000 H       1  UNL1        0.0258
     33 H           8.2991    2.1340    0.0000 H       1  UNL1        0.0258
     34 H           8.1282    3.8100    0.0000 H       1  UNL1        0.2102
     35 H           5.5301    3.3100    0.0000 H       1  UNL1        0.2100
     36 H           7.5350   -2.7040    0.0000 H       1  UNL1        0.0656
     37 H           3.7773   -2.9646    0.0000 H       1  UNL1        0.0628
     38 H           8.5460   -1.3100    0.0000 H       1  UNL1        0.1030
     39 H           2.3284   -2.1429    0.0000 H       1  UNL1        0.0689
     40 H           6.0862   -4.3469    0.0000 H       1  UNL1        0.0660
     41 H           6.9331   -4.1200    0.0000 H       1  UNL1        0.0660
     42 H           6.7062   -3.2731    0.0000 H       1  UNL1        0.0660
@<TRIPOS>BOND
     1     1    10    1
     2     1    13    1
     3     2     8    1
     4     2    34    1
     5     9     3    1
     6     3    35    1
     7     4    14   ar
     8     4    21   ar
     9     5    15   ar
    10     5    23   ar
    11     6    18    1
    12     6    24    1
    13     7    23    2
    14     8     9    1
    15     8    11    1
    16     8    12    1
    17     9    10    1
    18     9    25    1
    19    10    26    1
    20    10    27    1
    21    11    28    1
    22    11    29    1
    23    11    30    1
    24    12    31    1
    25    12    32    1
    26    12    33    1
    27    13    14   ar
    28    13    15   ar
    29    14    16   ar
    30    15    17   ar
    31    16    18   ar
    32    16    19   ar
    33    17    18   ar
    34    17    20   ar
    35    19    21   ar
    36    19    36    1
    37    20    22   ar
    38    20    37    1
    39    21    38    1
    40    22    23   ar
    41    22    39    1
    42    24    40    1
    43    24    41    1
    44    24    42    1
