@<TRIPOS>MOLECULE
IMPHY013576
 37 39 0 0 0
SMALL
GASTEIGER

@<TRIPOS>ATOM
      1 O           6.0321    1.0987    0.0000 O.3     1  UNL1       -0.3538
      2 O           6.0321   -1.6333    0.0000 O.2     1  UNL1       -0.2942
      3 C           5.5321    0.2327    0.0000 C.3     1  UNL1        0.1564
      4 C           6.5321    0.2327    0.0000 C.3     1  UNL1        0.1010
      5 C           4.6660    0.7327    0.0000 C.3     1  UNL1       -0.0067
      6 C           3.8000    0.2327    0.0000 C.3     1  UNL1       -0.0075
      7 C           3.8000   -0.7673    0.0000 C.3     1  UNL1       -0.0004
      8 C           5.5321   -0.7673    0.0000 C.2     1  UNL1        0.1685
      9 C           4.6660   -1.2673    0.0000 C.3     1  UNL1        0.0182
     10 C           7.3981    0.7327    0.0000 C.3     1  UNL1       -0.0329
     11 C           7.0322   -0.6333    0.0000 C.3     1  UNL1       -0.0329
     12 C           2.9061    0.7674    0.0000 C.2     1  UNL1       -0.0686
     13 C           3.8000   -1.7673    0.0000 C.3     1  UNL1       -0.0551
     14 C           2.9061   -1.3020    0.0000 C.2     1  UNL1       -0.0771
     15 C           2.0000    0.2535    0.0000 C.2     1  UNL1       -0.0628
     16 C           2.0000   -0.7881    0.0000 C.2     1  UNL1       -0.0652
     17 C           2.9176    1.7673    0.0000 C.3     1  UNL1       -0.0432
     18 H           5.0646    1.2076    0.0000 H       1  UNL1        0.0304
     19 H           4.2675    1.2076    0.0000 H       1  UNL1        0.0304
     20 H           3.8048    0.8527    0.0000 H       1  UNL1        0.0355
     21 H           4.2675   -1.7422    0.0000 H       1  UNL1        0.0351
     22 H           5.0646   -1.7422    0.0000 H       1  UNL1        0.0351
     23 H           7.7081    0.1958    0.0000 H       1  UNL1        0.0258
     24 H           7.9350    1.0427    0.0000 H       1  UNL1        0.0258
     25 H           7.0881    1.2696    0.0000 H       1  UNL1        0.0258
     26 H           6.4952   -0.9433    0.0000 H       1  UNL1        0.0258
     27 H           7.3422   -1.1702    0.0000 H       1  UNL1        0.0258
     28 H           7.5690   -0.3232    0.0000 H       1  UNL1        0.0258
     29 H           3.1800   -1.7673    0.0000 H       1  UNL1        0.0238
     30 H           3.8000   -2.3873    0.0000 H       1  UNL1        0.0238
     31 H           4.4200   -1.7673    0.0000 H       1  UNL1        0.0238
     32 H           2.9132   -1.9219    0.0000 H       1  UNL1        0.0578
     33 H           1.4643    0.5656    0.0000 H       1  UNL1        0.0617
     34 H           1.4643   -1.1002    0.0000 H       1  UNL1        0.0615
     35 H           3.5376    1.7601    0.0000 H       1  UNL1        0.0275
     36 H           2.9248    2.3873    0.0000 H       1  UNL1        0.0275
     37 H           2.2977    1.7745    0.0000 H       1  UNL1        0.0275
@<TRIPOS>BOND
     1     1     3    1
     2     1     4    1
     3     2     8    2
     4     3     4    1
     5     3     5    1
     6     3     8    1
     7     4    10    1
     8     4    11    1
     9     5     6    1
    10     5    18    1
    11     5    19    1
    12     6     7    1
    13     6    12    1
    14     6    20    1
    15     7     9    1
    16     7    13    1
    17     7    14    1
    18     8     9    1
    19     9    21    1
    20     9    22    1
    21    10    23    1
    22    10    24    1
    23    10    25    1
    24    11    26    1
    25    11    27    1
    26    11    28    1
    27    12    15    2
    28    12    17    1
    29    13    29    1
    30    13    30    1
    31    13    31    1
    32    14    16    2
    33    14    32    1
    34    15    16    1
    35    15    33    1
    36    16    34    1
    37    17    35    1
    38    17    36    1
    39    17    37    1
