@<TRIPOS>MOLECULE
IMPHY002101
 30 32 0 0 0
SMALL
GASTEIGER

@<TRIPOS>ATOM
      1 O           5.5301    1.8246    0.0000 O.2     1  UNL1       -0.2865
      2 O           5.5301   -2.1754    0.0000 O.2     1  UNL1       -0.2866
      3 O           7.2785    1.8592    0.0000 O.3     1  UNL1       -0.5028
      4 O           2.0000    0.8488    0.0000 O.3     1  UNL1       -0.5065
      5 O           9.0602    0.8488    0.0000 O.3     1  UNL1       -0.5033
      6 C           4.6641   -0.6754    0.0000 C.ar    1  UNL1        0.0336
      7 C           4.6641    0.3246    0.0000 C.ar    1  UNL1        0.0367
      8 C           6.3961    0.3246    0.0000 C.ar    1  UNL1        0.0781
      9 C           6.3961   -0.6754    0.0000 C.ar    1  UNL1        0.0368
     10 C           5.5301    0.8246    0.0000 C.2     1  UNL1        0.1982
     11 C           5.5301   -1.1754    0.0000 C.2     1  UNL1        0.1946
     12 C           3.7702   -1.2100    0.0000 C.ar    1  UNL1       -0.0439
     13 C           3.7702    0.8593    0.0000 C.ar    1  UNL1       -0.0084
     14 C           2.8641   -0.6962    0.0000 C.ar    1  UNL1       -0.0083
     15 C           7.2901    0.8593    0.0000 C.ar    1  UNL1        0.1699
     16 C           2.8641    0.3454    0.0000 C.ar    1  UNL1        0.1205
     17 C           7.2901   -1.2100    0.0000 C.ar    1  UNL1       -0.0465
     18 C           8.1962    0.3454    0.0000 C.ar    1  UNL1        0.1590
     19 C           8.1962   -0.6962    0.0000 C.ar    1  UNL1       -0.0158
     20 C           2.0000   -1.1995    0.0000 C.3     1  UNL1       -0.0362
     21 H           3.7773   -1.8300    0.0000 H       1  UNL1        0.0629
     22 H           3.7773    1.4792    0.0000 H       1  UNL1        0.0661
     23 H           7.2829   -1.8300    0.0000 H       1  UNL1        0.0626
     24 H           8.7319   -1.0083    0.0000 H       1  UNL1        0.0655
     25 H           1.6879   -0.6638    0.0000 H       1  UNL1        0.0279
     26 H           1.4643   -1.5116    0.0000 H       1  UNL1        0.0279
     27 H           2.3121   -1.7353    0.0000 H       1  UNL1        0.0279
     28 H           7.8118    2.1754    0.0000 H       1  UNL1        0.2923
     29 H           2.0024    1.4688    0.0000 H       1  UNL1        0.2921
     30 H           9.5984    0.5408    0.0000 H       1  UNL1        0.2923
@<TRIPOS>BOND
     1     1    10    2
     2     2    11    2
     3     3    15    1
     4     3    28    1
     5     4    16    1
     6     4    29    1
     7     5    18    1
     8     5    30    1
     9     6     7   ar
    10     6    11    1
    11     6    12   ar
    12     7    10    1
    13     7    13   ar
    14     8     9   ar
    15     8    10    1
    16     8    15   ar
    17     9    11    1
    18     9    17   ar
    19    12    14   ar
    20    12    21    1
    21    13    16   ar
    22    13    22    1
    23    14    16   ar
    24    14    20    1
    25    15    18   ar
    26    17    19   ar
    27    17    23    1
    28    18    19   ar
    29    19    24    1
    30    20    25    1
    31    20    26    1
    32    20    27    1
