@<TRIPOS>MOLECULE
IMPHY016307
 21 21 0 0 0
SMALL
GASTEIGER

@<TRIPOS>ATOM
      1 S           2.5369    0.7500    0.0000 S.3     1  UNL1       -0.1391
      2 O           4.2690    1.7500    0.0000 O.3     1  UNL1       -0.4939
      3 O           6.0010   -1.2500    0.0000 O.3     1  UNL1       -0.4950
      4 C           4.2690    0.7500    0.0000 C.ar    1  UNL1        0.1367
      5 C           5.1350   -0.7500    0.0000 C.ar    1  UNL1        0.1236
      6 C           5.1350    0.2500    0.0000 C.ar    1  UNL1        0.0228
      7 C           3.4030    0.2500    0.0000 C.ar    1  UNL1        0.0467
      8 C           4.2690   -1.2500    0.0000 C.ar    1  UNL1       -0.0187
      9 C           3.4030   -0.7500    0.0000 C.ar    1  UNL1       -0.0416
     10 C           5.1350    2.2500    0.0000 C.3     1  UNL1        0.0788
     11 C           6.0010   -2.2500    0.0000 C.3     1  UNL1        0.0788
     12 H           5.6720    0.5600    0.0000 H       1  UNL1        0.0691
     13 H           4.2690   -1.8700    0.0000 H       1  UNL1        0.0654
     14 H           2.8660   -1.0600    0.0000 H       1  UNL1        0.0631
     15 H           5.4450    1.7131    0.0000 H       1  UNL1        0.0660
     16 H           5.6720    2.5600    0.0000 H       1  UNL1        0.0660
     17 H           4.8250    2.7869    0.0000 H       1  UNL1        0.0660
     18 H           5.3810   -2.2500    0.0000 H       1  UNL1        0.0660
     19 H           6.0010   -2.8700    0.0000 H       1  UNL1        0.0660
     20 H           6.6210   -2.2500    0.0000 H       1  UNL1        0.0660
     21 H           2.0000    0.4400    0.0000 H       1  UNL1        0.1072
@<TRIPOS>BOND
     1     1     7    1
     2     1    21    1
     3     2     4    1
     4     2    10    1
     5     3     5    1
     6     3    11    1
     7     4     6   ar
     8     4     7   ar
     9     5     6   ar
    10     5     8   ar
    11     6    12    1
    12     7     9   ar
    13     8     9   ar
    14     8    13    1
    15     9    14    1
    16    10    15    1
    17    10    16    1
    18    10    17    1
    19    11    18    1
    20    11    19    1
    21    11    20    1
