@<TRIPOS>MOLECULE
IMPHY007657
 84 90 0 0 0
SMALL
GASTEIGER

@<TRIPOS>ATOM
      1 O           3.2704   -1.5858    0.0000 O.3     1  UNL1       -0.3635
      2 O           6.0538    2.2374    0.0000 O.3     1  UNL1       -0.3403
      3 O           2.5357   -0.8077    0.0000 O.3     1  UNL1       -0.3911
      4 O           6.1340    0.4382    0.0000 O.3     1  UNL1       -0.3910
      5 O           7.0120   -0.3082    0.0000 O.2     1  UNL1       -0.2971
      6 O           4.5357    3.2064    0.0000 O.3     1  UNL1       -0.4607
      7 O           5.1877    3.7374    0.0000 O.3     1  UNL1       -0.4342
      8 O           7.0778   -5.0695    0.0000 O.2     1  UNL1       -0.4708
      9 O           2.8885    3.7417    0.0000 O.2     1  UNL1       -0.2512
     10 O           6.9198    3.7374    0.0000 O.2     1  UNL1       -0.2505
     11 C           4.2974   -1.9169    0.0000 C.3     1  UNL1        0.1106
     12 C           4.3058   -0.8319    0.0000 C.3     1  UNL1        0.0360
     13 C           5.2370   -2.4594    0.0000 C.3     1  UNL1        0.0137
     14 C           3.4977   -2.6406    0.0000 C.3     1  UNL1        0.0902
     15 C           5.2038   -0.3041    0.0000 C.3     1  UNL1        0.0383
     16 C           5.1877    0.7374    0.0000 C.3     1  UNL1        0.0341
     17 C           5.0100   -3.5138    0.0000 C.3     1  UNL1       -0.0019
     18 C           4.3217    1.2374    0.0000 C.3     1  UNL1       -0.0134
     19 C           3.4037   -0.3111    0.0000 C.3     1  UNL1        0.0643
     20 C           3.9373   -3.6256    0.0000 C.3     1  UNL1       -0.0163
     21 C           6.1725   -1.9096    0.0000 C.3     1  UNL1        0.0148
     22 C           3.4117    0.7305    0.0000 C.3     1  UNL1       -0.0219
     23 C           4.3217    2.2374    0.0000 C.3     1  UNL1        0.0708
     24 C           6.1557   -0.8248    0.0000 C.2     1  UNL1        0.1384
     25 C           3.3223   -1.0131    0.0000 C.3     1  UNL1       -0.0538
     26 C           5.3908    1.1073    0.0000 C.3     1  UNL1        0.0673
     27 C           6.1031   -2.9594    0.0000 C.3     1  UNL1       -0.0559
     28 C           6.0538    1.2374    0.0000 C.3     1  UNL1        0.0606
     29 C           4.7436    2.2283    0.0000 C.3     1  UNL1        0.1167
     30 C           5.4745    1.9029    0.0000 C.3     1  UNL1        0.0118
     31 C           5.1877    2.7374    0.0000 C.3     1  UNL1        0.2137
     32 C           5.6779   -4.2581    0.0000 C.ar    1  UNL1       -0.0059
     33 C           3.4557    2.7374    0.0000 C.3     1  UNL1       -0.0501
     34 C           5.4683   -5.2359    0.0000 C.ar    1  UNL1       -0.0205
     35 C           6.6726   -4.1553    0.0000 C.ar    1  UNL1        0.0951
     36 C           6.3334   -5.7374    0.0000 C.ar    1  UNL1        0.0919
     37 C           3.8666    3.9496    0.0000 C.2     1  UNL1        0.3042
     38 C           6.0538    4.2374    0.0000 C.2     1  UNL1        0.3118
     39 C           6.0538    5.2374    0.0000 C.3     1  UNL1        0.0509
     40 C           4.1756    4.9006    0.0000 C.3     1  UNL1        0.0332
     41 C           6.9198    5.7374    0.0000 C.3     1  UNL1       -0.0525
     42 C           5.1877    5.7374    0.0000 C.3     1  UNL1       -0.0525
     43 H           2.6898   -2.9048    0.0000 H       1  UNL1        0.0625
     44 H           5.9316    0.1350    0.0000 H       1  UNL1        0.0391
     45 H           4.7871   -4.0923    0.0000 H       1  UNL1        0.0357
     46 H           3.5856    1.6624    0.0000 H       1  UNL1        0.0317
     47 H           2.8686    0.0020    0.0000 H       1  UNL1        0.0600
     48 H           3.3477   -3.8174    0.0000 H       1  UNL1        0.0297
     49 H           4.0660   -4.2321    0.0000 H       1  UNL1        0.0297
     50 H           6.3905   -2.4900    0.0000 H       1  UNL1        0.0348
     51 H           6.7816   -1.7941    0.0000 H       1  UNL1        0.0348
     52 H           3.2072    1.3158    0.0000 H       1  UNL1        0.0293
     53 H           2.8001    0.6291    0.0000 H       1  UNL1        0.0293
     54 H           3.2100   -0.4034    0.0000 H       1  UNL1        0.0237
     55 H           2.7126   -1.1254    0.0000 H       1  UNL1        0.0237
     56 H           3.4347   -1.6228    0.0000 H       1  UNL1        0.0237
     57 H           5.9696    1.3295    0.0000 H       1  UNL1        0.0601
     58 H           5.7931   -3.4963    0.0000 H       1  UNL1        0.0236
     59 H           6.6400   -3.2694    0.0000 H       1  UNL1        0.0236
     60 H           6.4131   -2.4224    0.0000 H       1  UNL1        0.0236
     61 H           6.2658    0.6548    0.0000 H       1  UNL1        0.0568
     62 H           6.6644    1.3450    0.0000 H       1  UNL1        0.0568
     63 H           5.2255    2.6185    0.0000 H       1  UNL1        0.0742
     64 H           6.0809    1.7740    0.0000 H       1  UNL1        0.0326
     65 H           5.6660    2.4926    0.0000 H       1  UNL1        0.0326
     66 H           4.6508    3.0474    0.0000 H       1  UNL1        0.1064
     67 H           3.7657    3.2743    0.0000 H       1  UNL1        0.0238
     68 H           2.9188    3.0474    0.0000 H       1  UNL1        0.0238
     69 H           3.1457    2.2004    0.0000 H       1  UNL1        0.0238
     70 H           2.0000   -0.4957    0.0000 H       1  UNL1        0.2098
     71 H           6.7236    0.6297    0.0000 H       1  UNL1        0.2098
     72 H           4.9014   -5.4871    0.0000 H       1  UNL1        0.0652
     73 H           6.9835   -3.6189    0.0000 H       1  UNL1        0.1032
     74 H           6.3972   -6.3541    0.0000 H       1  UNL1        0.1029
     75 H           6.0538    5.8574    0.0000 H       1  UNL1        0.0408
     76 H           4.7652    4.7091    0.0000 H       1  UNL1        0.0342
     77 H           4.3672    5.4903    0.0000 H       1  UNL1        0.0342
     78 H           3.5859    5.0922    0.0000 H       1  UNL1        0.0342
     79 H           7.2298    5.2004    0.0000 H       1  UNL1        0.0237
     80 H           7.4567    6.0474    0.0000 H       1  UNL1        0.0237
     81 H           6.6098    6.2743    0.0000 H       1  UNL1        0.0237
     82 H           5.4977    6.2743    0.0000 H       1  UNL1        0.0237
     83 H           4.6508    6.0474    0.0000 H       1  UNL1        0.0237
     84 H           4.8777    5.2004    0.0000 H       1  UNL1        0.0237
@<TRIPOS>BOND
     1    11     1    1
     2     1    14    1
     3     2    28    1
     4     2    31    1
     5    19     3    1
     6     3    70    1
     7    26     4    1
     8     4    71    1
     9     5    24    2
    10    29     6    1
    11     6    37    1
    12    31     7    1
    13     7    38    1
    14     8    35   ar
    15     8    36   ar
    16     9    37    2
    17    10    38    2
    18    11    12    1
    19    11    13    1
    20    11    14    1
    21    12    15    1
    22    12    19    1
    23    12    25    1
    24    13    17    1
    25    13    21    1
    26    13    27    1
    27    14    20    1
    28    14    43    1
    29    15    16    1
    30    15    24    1
    31    15    44    1
    32    16    18    1
    33    16    26    1
    34    16    28    1
    35    17    20    1
    36    17    32    1
    37    17    45    1
    38    18    22    1
    39    18    23    1
    40    18    46    1
    41    19    22    1
    42    19    47    1
    43    20    48    1
    44    20    49    1
    45    21    24    1
    46    21    50    1
    47    21    51    1
    48    22    52    1
    49    22    53    1
    50    23    29    1
    51    23    31    1
    52    23    33    1
    53    25    54    1
    54    25    55    1
    55    25    56    1
    56    26    30    1
    57    26    57    1
    58    27    58    1
    59    27    59    1
    60    27    60    1
    61    28    61    1
    62    28    62    1
    63    29    30    1
    64    29    63    1
    65    30    64    1
    66    30    65    1
    67    31    66    1
    68    32    34   ar
    69    32    35   ar
    70    33    67    1
    71    33    68    1
    72    33    69    1
    73    34    36   ar
    74    34    72    1
    75    35    73    1
    76    36    74    1
    77    37    40    1
    78    38    39    1
    79    39    41    1
    80    39    42    1
    81    39    75    1
    82    40    76    1
    83    40    77    1
    84    40    78    1
    85    41    79    1
    86    41    80    1
    87    41    81    1
    88    42    82    1
    89    42    83    1
    90    42    84    1
