@<TRIPOS>MOLECULE
IMPHY015774
 36 36 0 0 0
SMALL
GASTEIGER

@<TRIPOS>ATOM
      1 O           4.5981    0.2500    0.0000 O.3     1  UNL1       -0.4254
      2 O           3.7320   -1.2500    0.0000 O.2     1  UNL1       -0.2501
      3 C           6.3301    1.2500    0.0000 C.3     1  UNL1       -0.0180
      4 C           6.3301    0.2500    0.0000 C.ar    1  UNL1       -0.0022
      5 C           5.4641   -0.2500    0.0000 C.ar    1  UNL1        0.1350
      6 C           7.1962   -0.2500    0.0000 C.ar    1  UNL1       -0.0519
      7 C           7.1962    1.7500    0.0000 C.3     1  UNL1       -0.0585
      8 C           5.4641    1.7500    0.0000 C.3     1  UNL1       -0.0585
      9 C           7.1962   -1.2500    0.0000 C.ar    1  UNL1       -0.0500
     10 C           2.8660    0.2500    0.0000 C.3     1  UNL1        0.0512
     11 C           5.4641   -1.2500    0.0000 C.ar    1  UNL1       -0.0187
     12 C           6.3301   -1.7500    0.0000 C.ar    1  UNL1       -0.0553
     13 C           3.7320   -0.2500    0.0000 C.2     1  UNL1        0.3149
     14 C           2.0000   -0.2500    0.0000 C.3     1  UNL1       -0.0525
     15 C           2.8660    1.2500    0.0000 C.3     1  UNL1       -0.0525
     16 C           8.0622   -1.7500    0.0000 C.3     1  UNL1       -0.0397
     17 H           6.8671    0.9400    0.0000 H       1  UNL1        0.0345
     18 H           7.7331    0.0600    0.0000 H       1  UNL1        0.0624
     19 H           7.5062    1.2131    0.0000 H       1  UNL1        0.0235
     20 H           7.7331    2.0600    0.0000 H       1  UNL1        0.0235
     21 H           6.8862    2.2869    0.0000 H       1  UNL1        0.0235
     22 H           5.7741    2.2869    0.0000 H       1  UNL1        0.0235
     23 H           4.9272    2.0600    0.0000 H       1  UNL1        0.0235
     24 H           5.1541    1.2131    0.0000 H       1  UNL1        0.0235
     25 H           2.8660   -0.3700    0.0000 H       1  UNL1        0.0408
     26 H           4.9272   -1.5600    0.0000 H       1  UNL1        0.0654
     27 H           6.3301   -2.3700    0.0000 H       1  UNL1        0.0621
     28 H           1.6900    0.2869    0.0000 H       1  UNL1        0.0237
     29 H           1.4631   -0.5600    0.0000 H       1  UNL1        0.0237
     30 H           2.3100   -0.7869    0.0000 H       1  UNL1        0.0237
     31 H           3.4860    1.2500    0.0000 H       1  UNL1        0.0237
     32 H           2.8660    1.8700    0.0000 H       1  UNL1        0.0237
     33 H           2.2460    1.2500    0.0000 H       1  UNL1        0.0237
     34 H           7.7522   -2.2869    0.0000 H       1  UNL1        0.0278
     35 H           8.5991   -2.0600    0.0000 H       1  UNL1        0.0278
     36 H           8.3722   -1.2131    0.0000 H       1  UNL1        0.0278
@<TRIPOS>BOND
     1     1     5    1
     2     1    13    1
     3     2    13    2
     4     3     4    1
     5     3     7    1
     6     3     8    1
     7     3    17    1
     8     4     5   ar
     9     4     6   ar
    10     5    11   ar
    11     6     9   ar
    12     6    18    1
    13     7    19    1
    14     7    20    1
    15     7    21    1
    16     8    22    1
    17     8    23    1
    18     8    24    1
    19     9    12   ar
    20     9    16    1
    21    10    13    1
    22    10    14    1
    23    10    15    1
    24    10    25    1
    25    11    12   ar
    26    11    26    1
    27    12    27    1
    28    14    28    1
    29    14    29    1
    30    14    30    1
    31    15    31    1
    32    15    32    1
    33    15    33    1
    34    16    34    1
    35    16    35    1
    36    16    36    1
