@<TRIPOS>MOLECULE
IMPHY017280
 17 17 0 0 0
SMALL
GASTEIGER

@<TRIPOS>ATOM
      1 O           4.2690    1.3450    0.0000 O.3     1  UNL1       -0.5031
      2 O           2.5369    0.3450    0.0000 O.3     1  UNL1       -0.5033
      3 C           5.1350   -0.1550    0.0000 C.ar    1  UNL1       -0.0054
      4 C           4.2690    0.3450    0.0000 C.ar    1  UNL1        0.1612
      5 C           5.1350   -1.1550    0.0000 C.ar    1  UNL1       -0.0551
      6 C           3.4030   -0.1550    0.0000 C.ar    1  UNL1        0.1585
      7 C           6.0010    0.3450    0.0000 C.3     1  UNL1       -0.0361
      8 C           4.2690   -1.6550    0.0000 C.ar    1  UNL1       -0.0578
      9 C           3.4030   -1.1550    0.0000 C.ar    1  UNL1       -0.0165
     10 H           5.6720   -1.4650    0.0000 H       1  UNL1        0.0621
     11 H           6.3110   -0.1919    0.0000 H       1  UNL1        0.0279
     12 H           6.5380    0.6550    0.0000 H       1  UNL1        0.0279
     13 H           5.6910    0.8819    0.0000 H       1  UNL1        0.0279
     14 H           4.2690   -2.2750    0.0000 H       1  UNL1        0.0619
     15 H           2.8660   -1.4650    0.0000 H       1  UNL1        0.0655
     16 H           4.8059    1.6550    0.0000 H       1  UNL1        0.2923
     17 H           2.0000    0.0350    0.0000 H       1  UNL1        0.2923
@<TRIPOS>BOND
     1     1     4    1
     2     1    16    1
     3     2     6    1
     4     2    17    1
     5     3     4   ar
     6     3     5   ar
     7     3     7    1
     8     4     6   ar
     9     5     8   ar
    10     5    10    1
    11     6     9   ar
    12     7    11    1
    13     7    12    1
    14     7    13    1
    15     8     9   ar
    16     8    14    1
    17     9    15    1
