@<TRIPOS>MOLECULE
IMPHY008764
 127 133 0 0 0
SMALL
GASTEIGER

@<TRIPOS>ATOM
      1 O           4.9006   -2.0587    0.0000 O.3     1  UNL1       -0.3883
      2 O           8.3671   -3.0311    0.0000 O.2     1  UNL1       -0.4701
      3 O           6.8671   -3.8971    0.0000 O.3     1  UNL1       -0.3095
      4 O           5.1350   -3.8971    0.0000 O.3     1  UNL1       -0.3404
      5 O           9.8671   -0.4330    0.0000 O.3     1  UNL1       -0.4586
      6 O           8.3671    0.4330    0.0000 O.2     1  UNL1       -0.2452
      7 O           6.8671   -5.8971    0.0000 O.3     1  UNL1       -0.3841
      8 O          11.8671    1.2990    0.0000 O.3     1  UNL1       -0.3383
      9 O           5.1350   -6.8971    0.0000 O.3     1  UNL1       -0.3864
     10 O           3.4030   -5.8971    0.0000 O.3     1  UNL1       -0.3865
     11 O          13.3671   -1.2990    0.0000 O.3     1  UNL1       -0.3389
     12 O          11.3671   -1.2990    0.0000 O.3     1  UNL1       -0.4528
     13 O          14.8671   -0.4330    0.0000 O.3     1  UNL1       -0.3431
     14 O          13.3671    2.1651    0.0000 O.3     1  UNL1       -0.3484
     15 O          14.3671    0.4330    0.0000 O.3     1  UNL1       -0.3841
     16 O           2.5369   -4.3971    0.0000 O.3     1  UNL1       -0.3924
     17 O          14.3671   -3.0311    0.0000 O.3     1  UNL1       -0.3841
     18 O          16.3671   -3.0311    0.0000 O.3     1  UNL1       -0.3864
     19 O          17.3671   -1.2990    0.0000 O.3     1  UNL1       -0.3866
     20 O          12.8671   -2.1651    0.0000 O.2     1  UNL1       -0.2456
     21 O          10.3671    5.6292    0.0000 O.3     1  UNL1       -0.5033
     22 O          11.3671    7.3612    0.0000 O.3     1  UNL1       -0.5033
     23 O          11.8671   -7.3612    0.0000 O.3     1  UNL1       -0.5033
     24 O           9.8671   -7.3612    0.0000 O.3     1  UNL1       -0.5033
     25 C           6.8671   -2.1651    0.0000 C.3     1  UNL1        0.0572
     26 C           5.8952   -1.9559    0.0000 C.3     1  UNL1        0.0724
     27 C           7.3671   -1.2990    0.0000 C.3     1  UNL1        0.0050
     28 C           5.7922   -0.9671    0.0000 C.3     1  UNL1       -0.0232
     29 C           6.7000   -0.5620    0.0000 C.3     1  UNL1       -0.0427
     30 C           7.3671   -3.0311    0.0000 C.3     1  UNL1        0.2094
     31 C           8.3671   -1.2990    0.0000 C.2     1  UNL1        0.0744
     32 C           5.6856   -2.9336    0.0000 C.3     1  UNL1       -0.0356
     33 C           8.8671   -2.1651    0.0000 C.2     1  UNL1        0.0981
     34 C           6.0010   -4.3971    0.0000 C.3     1  UNL1        0.1918
     35 C           8.8671   -0.4330    0.0000 C.2     1  UNL1        0.3384
     36 C           6.0010   -5.3971    0.0000 C.3     1  UNL1        0.1342
     37 C           5.1350   -5.8971    0.0000 C.3     1  UNL1        0.1141
     38 C           4.2690   -4.3971    0.0000 C.3     1  UNL1        0.1130
     39 C           4.2690   -5.3971    0.0000 C.3     1  UNL1        0.1119
     40 C          11.3671    0.4330    0.0000 C.3     1  UNL1        0.1350
     41 C          10.3671    0.4330    0.0000 C.3     1  UNL1        0.1225
     42 C          11.8671   -0.4330    0.0000 C.3     1  UNL1        0.1612
     43 C          12.8671   -0.4330    0.0000 C.3     1  UNL1        0.1316
     44 C          13.3671    0.4330    0.0000 C.3     1  UNL1        0.1355
     45 C           3.4030   -3.8971    0.0000 C.3     1  UNL1        0.0730
     46 C          12.8671    1.2990    0.0000 C.3     1  UNL1        0.1881
     47 C          14.3671   -1.2990    0.0000 C.3     1  UNL1        0.1884
     48 C          14.8671   -2.1651    0.0000 C.3     1  UNL1        0.1341
     49 C          15.8671   -2.1651    0.0000 C.3     1  UNL1        0.1140
     50 C          16.3671   -1.2990    0.0000 C.3     1  UNL1        0.1095
     51 C          15.8671   -0.4330    0.0000 C.3     1  UNL1        0.0873
     52 C          16.3671    0.4330    0.0000 C.3     1  UNL1       -0.0361
     53 C          12.8671    3.0311    0.0000 C.3     1  UNL1        0.0547
     54 C          11.8671   -2.1651    0.0000 C.2     1  UNL1        0.3324
     55 C          13.3671    3.8971    0.0000 C.3     1  UNL1       -0.0039
     56 C          11.3671   -3.0311    0.0000 C.2     1  UNL1        0.0231
     57 C          12.8671    4.7631    0.0000 C.ar    1  UNL1       -0.0415
     58 C          11.8671   -3.8971    0.0000 C.2     1  UNL1       -0.0477
     59 C          11.8671    4.7631    0.0000 C.ar    1  UNL1       -0.0133
     60 C          13.3671    5.6292    0.0000 C.ar    1  UNL1       -0.0548
     61 C          11.3671   -4.7631    0.0000 C.ar    1  UNL1       -0.0211
     62 C          11.3671    5.6292    0.0000 C.ar    1  UNL1        0.1585
     63 C          12.8671    6.4952    0.0000 C.ar    1  UNL1       -0.0163
     64 C          11.8671    6.4952    0.0000 C.ar    1  UNL1        0.1582
     65 C          11.8671   -5.6292    0.0000 C.ar    1  UNL1       -0.0094
     66 C          10.3671   -4.7631    0.0000 C.ar    1  UNL1       -0.0509
     67 C          11.3671   -6.4952    0.0000 C.ar    1  UNL1        0.1588
     68 C           9.8671   -5.6292    0.0000 C.ar    1  UNL1       -0.0160
     69 C          10.3671   -6.4952    0.0000 C.ar    1  UNL1        0.1582
     70 H           6.3666   -2.8521    0.0000 H       1  UNL1        0.0395
     71 H           7.7118   -0.5221    0.0000 H       1  UNL1        0.0358
     72 H           5.6004   -0.3775    0.0000 H       1  UNL1        0.0293
     73 H           5.1857   -1.0959    0.0000 H       1  UNL1        0.0293
     74 H           7.2008   -0.1966    0.0000 H       1  UNL1        0.0272
     75 H           6.3892   -0.0255    0.0000 H       1  UNL1        0.0272
     76 H           6.7471   -3.0311    0.0000 H       1  UNL1        0.1060
     77 H           5.0794   -2.8037    0.0000 H       1  UNL1        0.0257
     78 H           5.5557   -3.5399    0.0000 H       1  UNL1        0.0257
     79 H           6.2919   -3.0636    0.0000 H       1  UNL1        0.0257
     80 H           4.5370   -1.5564    0.0000 H       1  UNL1        0.2102
     81 H           9.4871   -2.1651    0.0000 H       1  UNL1        0.1029
     82 H           6.0010   -3.7771    0.0000 H       1  UNL1        0.0939
     83 H           6.0010   -6.0171    0.0000 H       1  UNL1        0.0671
     84 H           4.5981   -6.2071    0.0000 H       1  UNL1        0.0648
     85 H           4.2690   -3.7771    0.0000 H       1  UNL1        0.0647
     86 H           3.7320   -5.0871    0.0000 H       1  UNL1        0.0647
     87 H          11.0571    0.9699    0.0000 H       1  UNL1        0.0669
     88 H          10.4747    1.0436    0.0000 H       1  UNL1        0.0725
     89 H           9.7844    0.6451    0.0000 H       1  UNL1        0.0725
     90 H          12.1771   -0.9699    0.0000 H       1  UNL1        0.0789
     91 H          13.4871   -0.4330    0.0000 H       1  UNL1        0.0663
     92 H          13.6771    0.9699    0.0000 H       1  UNL1        0.0671
     93 H           3.8015   -3.4222    0.0000 H       1  UNL1        0.0584
     94 H           3.0044   -3.4222    0.0000 H       1  UNL1        0.0584
     95 H           6.8671   -6.5171    0.0000 H       1  UNL1        0.2101
     96 H          12.5571    1.8360    0.0000 H       1  UNL1        0.0937
     97 H           4.5981   -7.2071    0.0000 H       1  UNL1        0.2100
     98 H          14.0571   -1.8360    0.0000 H       1  UNL1        0.0938
     99 H           3.4030   -6.5171    0.0000 H       1  UNL1        0.2100
    100 H          15.1771   -2.7020    0.0000 H       1  UNL1        0.0671
    101 H          16.4871   -2.1651    0.0000 H       1  UNL1        0.0648
    102 H          16.6771   -0.7621    0.0000 H       1  UNL1        0.0646
    103 H          15.5571    0.1039    0.0000 H       1  UNL1        0.0621
    104 H          14.6771    0.9699    0.0000 H       1  UNL1        0.2101
    105 H           2.0000   -4.0871    0.0000 H       1  UNL1        0.2095
    106 H          16.9040    0.1230    0.0000 H       1  UNL1        0.0255
    107 H          16.6771    0.9699    0.0000 H       1  UNL1        0.0255
    108 H          15.8301    0.7430    0.0000 H       1  UNL1        0.0255
    109 H          12.3921    3.4296    0.0000 H       1  UNL1        0.0564
    110 H          12.3921    2.6326    0.0000 H       1  UNL1        0.0564
    111 H          14.6771   -3.5680    0.0000 H       1  UNL1        0.2101
    112 H          16.9871   -3.0311    0.0000 H       1  UNL1        0.2100
    113 H          17.6771   -0.7621    0.0000 H       1  UNL1        0.2100
    114 H          13.8420    3.4986    0.0000 H       1  UNL1        0.0335
    115 H          13.8420    4.2956    0.0000 H       1  UNL1        0.0335
    116 H          10.7471   -3.0311    0.0000 H       1  UNL1        0.0689
    117 H          12.4871   -3.8971    0.0000 H       1  UNL1        0.0626
    118 H          11.5571    4.2262    0.0000 H       1  UNL1        0.0658
    119 H          13.9871    5.6292    0.0000 H       1  UNL1        0.0621
    120 H          13.1771    7.0321    0.0000 H       1  UNL1        0.0655
    121 H          12.4871   -5.6292    0.0000 H       1  UNL1        0.0661
    122 H          10.0571   -4.2262    0.0000 H       1  UNL1        0.0625
    123 H          10.0571    6.1661    0.0000 H       1  UNL1        0.2923
    124 H           9.2471   -5.6292    0.0000 H       1  UNL1        0.0655
    125 H          11.6771    7.8982    0.0000 H       1  UNL1        0.2923
    126 H          12.4871   -7.3612    0.0000 H       1  UNL1        0.2923
    127 H          10.1771   -7.8982    0.0000 H       1  UNL1        0.2923
@<TRIPOS>BOND
     1    26     1    1
     2     1    80    1
     3     2    30    1
     4     2    33    1
     5    30     3    1
     6    34     3    1
     7     4    34    1
     8     4    38    1
     9     5    35    1
    10     5    41    1
    11     6    35    2
    12    36     7    1
    13     7    95    1
    14     8    40    1
    15     8    46    1
    16    37     9    1
    17     9    97    1
    18    39    10    1
    19    10    99    1
    20    43    11    1
    21    47    11    1
    22    42    12    1
    23    12    54    1
    24    13    47    1
    25    13    51    1
    26    46    14    1
    27    14    53    1
    28    44    15    1
    29    15   104    1
    30    16    45    1
    31    16   105    1
    32    48    17    1
    33    17   111    1
    34    49    18    1
    35    18   112    1
    36    50    19    1
    37    19   113    1
    38    20    54    2
    39    21    62    1
    40    21   123    1
    41    22    64    1
    42    22   125    1
    43    23    67    1
    44    23   126    1
    45    24    69    1
    46    24   127    1
    47    25    26    1
    48    25    27    1
    49    25    30    1
    50    25    70    1
    51    26    28    1
    52    26    32    1
    53    27    29    1
    54    27    31    1
    55    27    71    1
    56    28    29    1
    57    28    72    1
    58    28    73    1
    59    29    74    1
    60    29    75    1
    61    30    76    1
    62    31    33    2
    63    31    35    1
    64    32    77    1
    65    32    78    1
    66    32    79    1
    67    33    81    1
    68    34    36    1
    69    34    82    1
    70    36    37    1
    71    36    83    1
    72    37    39    1
    73    37    84    1
    74    38    39    1
    75    38    45    1
    76    38    85    1
    77    39    86    1
    78    40    41    1
    79    40    42    1
    80    40    87    1
    81    41    88    1
    82    41    89    1
    83    42    43    1
    84    42    90    1
    85    43    44    1
    86    43    91    1
    87    44    46    1
    88    44    92    1
    89    45    93    1
    90    45    94    1
    91    46    96    1
    92    47    48    1
    93    47    98    1
    94    48    49    1
    95    48   100    1
    96    49    50    1
    97    49   101    1
    98    50    51    1
    99    50   102    1
   100    51    52    1
   101    51   103    1
   102    52   106    1
   103    52   107    1
   104    52   108    1
   105    53    55    1
   106    53   109    1
   107    53   110    1
   108    54    56    1
   109    55    57    1
   110    55   114    1
   111    55   115    1
   112    56    58    2
   113    56   116    1
   114    57    59   ar
   115    57    60   ar
   116    58    61    1
   117    58   117    1
   118    59    62   ar
   119    59   118    1
   120    60    63   ar
   121    60   119    1
   122    61    65   ar
   123    61    66   ar
   124    62    64   ar
   125    63    64   ar
   126    63   120    1
   127    65    67   ar
   128    65   121    1
   129    66    68   ar
   130    66   122    1
   131    67    69   ar
   132    68    69   ar
   133    68   124    1
