@<TRIPOS>MOLECULE
IMPHY016815
 22 22 0 0 0
SMALL
GASTEIGER

@<TRIPOS>ATOM
      1 O           5.0981   -2.1830    0.0000 O.3     1  UNL1       -0.3717
      2 C           4.5981   -1.3170    0.0000 C.3     1  UNL1        0.0821
      3 C           3.7320   -0.8170    0.0000 C.3     1  UNL1       -0.0244
      4 C           5.5981   -1.3170    0.0000 C.3     1  UNL1        0.0743
      5 C           3.7320    0.1830    0.0000 C.3     1  UNL1       -0.0506
      6 C           2.8660    0.6830    0.0000 C.3     1  UNL1       -0.0532
      7 C           2.8660    1.6830    0.0000 C.3     1  UNL1       -0.0559
      8 C           2.0000    2.1830    0.0000 C.3     1  UNL1       -0.0653
      9 H           4.1597   -1.7554    0.0000 H       1  UNL1        0.0619
     10 H           3.1215   -0.7093    0.0000 H       1  UNL1        0.0291
     11 H           3.5200   -1.3996    0.0000 H       1  UNL1        0.0291
     12 H           6.1807   -1.5290    0.0000 H       1  UNL1        0.0586
     13 H           5.7057   -0.7064    0.0000 H       1  UNL1        0.0586
     14 H           4.3426    0.0754    0.0000 H       1  UNL1        0.0266
     15 H           3.9441    0.7656    0.0000 H       1  UNL1        0.0266
     16 H           2.2554    0.7907    0.0000 H       1  UNL1        0.0265
     17 H           2.6540    0.1004    0.0000 H       1  UNL1        0.0265
     18 H           3.4766    1.5754    0.0000 H       1  UNL1        0.0263
     19 H           3.0781    2.2656    0.0000 H       1  UNL1        0.0263
     20 H           2.3100    2.7200    0.0000 H       1  UNL1        0.0230
     21 H           1.4631    2.4930    0.0000 H       1  UNL1        0.0230
     22 H           1.6900    1.6461    0.0000 H       1  UNL1        0.0230
@<TRIPOS>BOND
     1     1     2    1
     2     1     4    1
     3     2     3    1
     4     2     4    1
     5     2     9    1
     6     3     5    1
     7     3    10    1
     8     3    11    1
     9     4    12    1
    10     4    13    1
    11     5     6    1
    12     5    14    1
    13     5    15    1
    14     6     7    1
    15     6    16    1
    16     6    17    1
    17     7     8    1
    18     7    18    1
    19     7    19    1
    20     8    20    1
    21     8    21    1
    22     8    22    1
