@<TRIPOS>MOLECULE
IMPHY013539
 125 130 0 0 0
SMALL
GASTEIGER

@<TRIPOS>ATOM
      1 O           6.0890    1.4644    0.0000 O.3     1  UNL1       -0.4577
      2 O           2.2495    1.4501    0.0000 O.3     1  UNL1       -0.4643
      3 O           4.2752   -2.8066    0.0000 O.3     1  UNL1       -0.4643
      4 O           6.2000    3.4038    0.0000 O.2     1  UNL1       -0.2452
      5 O           5.0124    5.1061    0.0000 O.2     1  UNL1       -0.4666
      6 O           2.1343    3.1783    0.0000 O.2     1  UNL1       -0.2508
      7 O           3.4581    5.8704    0.0000 O.3     1  UNL1       -0.3061
      8 O           4.5760   -4.5123    0.0000 O.2     1  UNL1       -0.2508
      9 O           4.8971    6.8344    0.0000 O.3     1  UNL1       -0.3404
     10 O           7.4116   -6.6651    0.0000 O.3     1  UNL1       -0.3061
     11 O           8.2776   -5.1651    0.0000 O.2     1  UNL1       -0.4666
     12 O           5.6796   -6.6651    0.0000 O.3     1  UNL1       -0.3404
     13 O           2.3450    7.5321    0.0000 O.3     1  UNL1       -0.3841
     14 O           3.2276    9.3269    0.0000 O.3     1  UNL1       -0.3864
     15 O           5.2231    9.4599    0.0000 O.3     1  UNL1       -0.3865
     16 O           7.4116   -8.6651    0.0000 O.3     1  UNL1       -0.3841
     17 O           5.6796   -9.6651    0.0000 O.3     1  UNL1       -0.3864
     18 O           3.9475   -8.6651    0.0000 O.3     1  UNL1       -0.3865
     19 O           6.7774    8.6956    0.0000 O.3     1  UNL1       -0.3924
     20 O           8.2776   -2.1651    0.0000 O.3     1  UNL1       -0.4646
     21 O           6.5456   -2.1651    0.0000 O.2     1  UNL1       -0.2452
     22 O           3.0815   -7.1651    0.0000 O.3     1  UNL1       -0.3924
     23 C           4.3165   -0.1612    0.0000 C.3     1  UNL1       -0.0258
     24 C           3.8038    0.6858    0.0000 C.3     1  UNL1        0.0025
     25 C           4.7012    0.2445    0.0000 C.3     1  UNL1       -0.0005
     26 C           5.2536    0.1581    0.0000 C.3     1  UNL1       -0.0118
     27 C           5.1425    1.1419    0.0000 C.3     1  UNL1        0.1066
     28 C           3.9744   -1.1009    0.0000 C.3     1  UNL1       -0.0062
     29 C           2.8060    0.6193    0.0000 C.3     1  UNL1        0.0959
     30 C           5.0237   -0.7020    0.0000 C.3     1  UNL1       -0.0587
     31 C           4.6172   -1.8669    0.0000 C.3     1  UNL1        0.0953
     32 C           2.9896   -1.2745    0.0000 C.3     1  UNL1       -0.0591
     33 C           5.6841    2.5471    0.0000 C.2     1  UNL1        0.3389
     34 C           4.1298    3.3114    0.0000 C.3     1  UNL1        0.0307
     35 C           5.1276    3.3779    0.0000 C.2     1  UNL1        0.0785
     36 C           2.6908    2.3475    0.0000 C.2     1  UNL1        0.3080
     37 C           3.6886    2.4140    0.0000 C.3     1  UNL1        0.0559
     38 C           3.5733    4.1422    0.0000 C.2     1  UNL1        0.0019
     39 C           4.9180   -3.5726    0.0000 C.2     1  UNL1        0.3080
     40 C           5.5689    4.2753    0.0000 C.2     1  UNL1        0.0988
     41 C           4.0146    5.0396    0.0000 C.3     1  UNL1        0.2266
     42 C           5.9028   -3.3990    0.0000 C.3     1  UNL1        0.0559
     43 C           6.5456   -4.1651    0.0000 C.3     1  UNL1        0.0307
     44 C           2.5755    4.0757    0.0000 C.2     1  UNL1       -0.0814
     45 C           3.8993    6.7678    0.0000 C.3     1  UNL1        0.1921
     46 C           3.3428    7.5986    0.0000 C.3     1  UNL1        0.1343
     47 C           6.5456   -5.1651    0.0000 C.2     1  UNL1        0.0019
     48 C           3.7841    8.4960    0.0000 C.3     1  UNL1        0.1141
     49 C           7.4116   -3.6651    0.0000 C.2     1  UNL1        0.0785
     50 C           4.7819    8.5626    0.0000 C.3     1  UNL1        0.1119
     51 C           5.3384    7.7317    0.0000 C.3     1  UNL1        0.1130
     52 C           2.0190    4.9065    0.0000 C.3     1  UNL1       -0.0464
     53 C           7.4116   -5.6651    0.0000 C.3     1  UNL1        0.2266
     54 C           6.5456   -7.1651    0.0000 C.3     1  UNL1        0.1921
     55 C           6.5456   -8.1651    0.0000 C.3     1  UNL1        0.1343
     56 C           5.6796   -8.6651    0.0000 C.3     1  UNL1        0.1141
     57 C           4.8135   -8.1651    0.0000 C.3     1  UNL1        0.1119
     58 C           4.8135   -7.1651    0.0000 C.3     1  UNL1        0.1130
     59 C           8.2776   -4.1651    0.0000 C.2     1  UNL1        0.0988
     60 C           5.6796   -5.6651    0.0000 C.2     1  UNL1       -0.0814
     61 C           6.3362    7.7983    0.0000 C.3     1  UNL1        0.0730
     62 C           7.4116   -2.6651    0.0000 C.2     1  UNL1        0.3384
     63 C           3.9475   -6.6651    0.0000 C.3     1  UNL1        0.0730
     64 C           4.6948   -5.4914    0.0000 C.3     1  UNL1       -0.0464
     65 C           8.2776   -1.1651    0.0000 C.3     1  UNL1        0.0820
     66 H           4.7503   -0.6041    0.0000 H       1  UNL1        0.0309
     67 H           3.9241    1.2940    0.0000 H       1  UNL1        0.0340
     68 H           4.2355   -0.1648    0.0000 H       1  UNL1        0.0338
     69 H           5.4108   -0.4416    0.0000 H       1  UNL1        0.0304
     70 H           5.8631    0.2718    0.0000 H       1  UNL1        0.0304
     71 H           4.7331    1.6076    0.0000 H       1  UNL1        0.0737
     72 H           3.5759   -0.6259    0.0000 H       1  UNL1        0.0334
     73 H           2.2388    0.3689    0.0000 H       1  UNL1        0.0700
     74 H           2.9541    0.0172    0.0000 H       1  UNL1        0.0700
     75 H           4.4368   -0.9020    0.0000 H       1  UNL1        0.0234
     76 H           5.2237   -1.2889    0.0000 H       1  UNL1        0.0234
     77 H           5.6106   -0.5021    0.0000 H       1  UNL1        0.0234
     78 H           5.1542   -2.1769    0.0000 H       1  UNL1        0.0700
     79 H           5.0158   -1.3920    0.0000 H       1  UNL1        0.0700
     80 H           2.8820   -0.6639    0.0000 H       1  UNL1        0.0234
     81 H           2.3791   -1.3822    0.0000 H       1  UNL1        0.0234
     82 H           3.0973   -1.8851    0.0000 H       1  UNL1        0.0234
     83 H           3.5112    3.2701    0.0000 H       1  UNL1        0.0404
     84 H           3.6218    1.7976    0.0000 H       1  UNL1        0.0387
     85 H           4.2840    2.2412    0.0000 H       1  UNL1        0.0387
     86 H           6.1875    4.3166    0.0000 H       1  UNL1        0.1030
     87 H           3.3960    4.9983    0.0000 H       1  UNL1        0.1109
     88 H           6.4398   -3.0890    0.0000 H       1  UNL1        0.0387
     89 H           5.6908   -2.8164    0.0000 H       1  UNL1        0.0387
     90 H           5.9630   -4.3771    0.0000 H       1  UNL1        0.0404
     91 H           2.3020    3.5193    0.0000 H       1  UNL1        0.0571
     92 H           3.2807    6.7266    0.0000 H       1  UNL1        0.0939
     93 H           2.9978    8.1138    0.0000 H       1  UNL1        0.0671
     94 H           3.1655    8.4548    0.0000 H       1  UNL1        0.0648
     95 H           4.4368    9.0777    0.0000 H       1  UNL1        0.0647
     96 H           5.6834    7.2166    0.0000 H       1  UNL1        0.0647
     97 H           2.5341    5.2516    0.0000 H       1  UNL1        0.0272
     98 H           1.6740    5.4216    0.0000 H       1  UNL1        0.0272
     99 H           1.5039    4.5615    0.0000 H       1  UNL1        0.0272
    100 H           6.8747   -5.9751    0.0000 H       1  UNL1        0.1109
    101 H           6.5456   -6.5451    0.0000 H       1  UNL1        0.0939
    102 H           6.5456   -8.7851    0.0000 H       1  UNL1        0.0671
    103 H           5.1426   -8.9751    0.0000 H       1  UNL1        0.0648
    104 H           4.2766   -7.8551    0.0000 H       1  UNL1        0.0647
    105 H           4.8135   -6.5451    0.0000 H       1  UNL1        0.0647
    106 H           8.8146   -3.8551    0.0000 H       1  UNL1        0.1030
    107 H           5.7872   -6.2756    0.0000 H       1  UNL1        0.0571
    108 H           6.2694    7.1819    0.0000 H       1  UNL1        0.0584
    109 H           6.9316    7.6254    0.0000 H       1  UNL1        0.0584
    110 H           2.0000    8.0472    0.0000 H       1  UNL1        0.2101
    111 H           3.5012    9.8832    0.0000 H       1  UNL1        0.2100
    112 H           4.8781    9.9751    0.0000 H       1  UNL1        0.2100
    113 H           4.3460   -6.1901    0.0000 H       1  UNL1        0.0584
    114 H           3.5490   -6.1901    0.0000 H       1  UNL1        0.0584
    115 H           4.8024   -4.8808    0.0000 H       1  UNL1        0.0272
    116 H           4.0842   -5.3838    0.0000 H       1  UNL1        0.0272
    117 H           4.5871   -6.1020    0.0000 H       1  UNL1        0.0272
    118 H           7.9486   -8.3551    0.0000 H       1  UNL1        0.2101
    119 H           6.2165   -9.9751    0.0000 H       1  UNL1        0.2100
    120 H           3.9475   -9.2851    0.0000 H       1  UNL1        0.2100
    121 H           7.3961    8.7369    0.0000 H       1  UNL1        0.2095
    122 H           2.5446   -6.8551    0.0000 H       1  UNL1        0.2095
    123 H           8.8976   -1.1651    0.0000 H       1  UNL1        0.0661
    124 H           8.2776   -0.5451    0.0000 H       1  UNL1        0.0661
    125 H           7.6576   -1.1651    0.0000 H       1  UNL1        0.0661
@<TRIPOS>BOND
     1     1    27    1
     2     1    33    1
     3     2    29    1
     4     2    36    1
     5     3    31    1
     6     3    39    1
     7     4    33    2
     8     5    40    1
     9     5    41    1
    10     6    36    2
    11     7    41    1
    12     7    45    1
    13     8    39    2
    14     9    45    1
    15     9    51    1
    16    10    53    1
    17    10    54    1
    18    11    53    1
    19    11    59    1
    20    12    54    1
    21    12    58    1
    22    13    46    1
    23    13   110    1
    24    14    48    1
    25    14   111    1
    26    15    50    1
    27    15   112    1
    28    16    55    1
    29    16   118    1
    30    17    56    1
    31    17   119    1
    32    18    57    1
    33    18   120    1
    34    19    61    1
    35    19   121    1
    36    20    62    1
    37    20    65    1
    38    21    62    2
    39    22    63    1
    40    22   122    1
    41    23    24    1
    42    23    26    1
    43    23    28    1
    44    23    66    1
    45    24    25    1
    46    24    29    1
    47    24    67    1
    48    25    27    1
    49    25    30    1
    50    25    68    1
    51    26    27    1
    52    26    69    1
    53    26    70    1
    54    27    71    1
    55    28    31    1
    56    28    32    1
    57    28    72    1
    58    29    73    1
    59    29    74    1
    60    30    75    1
    61    30    76    1
    62    30    77    1
    63    31    78    1
    64    31    79    1
    65    32    80    1
    66    32    81    1
    67    32    82    1
    68    33    35    1
    69    34    35    1
    70    34    37    1
    71    34    38    1
    72    34    83    1
    73    35    40    2
    74    36    37    1
    75    37    84    1
    76    37    85    1
    77    38    41    1
    78    38    44    2
    79    39    42    1
    80    40    86    1
    81    41    87    1
    82    42    43    1
    83    42    88    1
    84    42    89    1
    85    43    47    1
    86    43    49    1
    87    43    90    1
    88    44    52    1
    89    44    91    1
    90    45    46    1
    91    45    92    1
    92    46    48    1
    93    46    93    1
    94    47    53    1
    95    47    60    2
    96    48    50    1
    97    48    94    1
    98    49    59    2
    99    49    62    1
   100    50    51    1
   101    50    95    1
   102    51    61    1
   103    51    96    1
   104    52    97    1
   105    52    98    1
   106    52    99    1
   107    53   100    1
   108    54    55    1
   109    54   101    1
   110    55    56    1
   111    55   102    1
   112    56    57    1
   113    56   103    1
   114    57    58    1
   115    57   104    1
   116    58    63    1
   117    58   105    1
   118    59   106    1
   119    60    64    1
   120    60   107    1
   121    61   108    1
   122    61   109    1
   123    63   113    1
   124    63   114    1
   125    64   115    1
   126    64   116    1
   127    64   117    1
   128    65   123    1
   129    65   124    1
   130    65   125    1
