@<TRIPOS>MOLECULE
IMPHY005838
 39 40 0 0 0
SMALL
GASTEIGER

@<TRIPOS>ATOM
      1 O           6.1783   -0.4324    0.0000 O.3     1  UNL1       -0.4602
      2 O           7.7619    0.3724    0.0000 O.2     1  UNL1       -0.2505
      3 C           5.2320    0.8724    0.0000 C.3     1  UNL1        0.0094
      4 C           5.2320   -0.1276    0.0000 C.3     1  UNL1        0.1138
      5 C           4.3660   -0.6276    0.0000 C.3     1  UNL1        0.0258
      6 C           3.5000   -0.1276    0.0000 C.3     1  UNL1       -0.0045
      7 C           4.3660    1.3724    0.0000 C.3     1  UNL1       -0.0453
      8 C           3.5000    0.8724    0.0000 C.3     1  UNL1       -0.0431
      9 C           6.1783    1.1771    0.0000 C.3     1  UNL1        0.0598
     10 C           3.0000   -0.9937    0.0000 C.3     1  UNL1       -0.0554
     11 C           4.3660   -1.6276    0.0000 C.2     1  UNL1       -0.0723
     12 C           6.7619    0.3724    0.0000 C.2     1  UNL1        0.3106
     13 C           2.5000   -0.1276    0.0000 C.2     1  UNL1       -0.0845
     14 C           6.4889    2.1276    0.0000 C.3     1  UNL1       -0.0519
     15 C           5.2320   -2.1276    0.0000 C.3     1  UNL1       -0.0436
     16 C           3.5000   -2.1276    0.0000 C.2     1  UNL1       -0.0993
     17 C           2.0000    0.7384    0.0000 C.2     1  UNL1       -0.1021
     18 H           5.3220    1.7176    0.0000 H       1  UNL1        0.0344
     19 H           5.3220   -0.9729    0.0000 H       1  UNL1        0.0743
     20 H           5.1022   -1.0526    0.0000 H       1  UNL1        0.0390
     21 H           4.7646    1.8473    0.0000 H       1  UNL1        0.0270
     22 H           3.9675    1.8473    0.0000 H       1  UNL1        0.0270
     23 H           3.2880    1.4550    0.0000 H       1  UNL1        0.0274
     24 H           2.8894    0.7647    0.0000 H       1  UNL1        0.0274
     25 H           7.0180    1.3090    0.0000 H       1  UNL1        0.0415
     26 H           2.4631   -0.6837    0.0000 H       1  UNL1        0.0238
     27 H           2.6900   -1.5306    0.0000 H       1  UNL1        0.0238
     28 H           3.5369   -1.3036    0.0000 H       1  UNL1        0.0238
     29 H           2.1900   -0.6646    0.0000 H       1  UNL1        0.0572
     30 H           7.0783    1.9350    0.0000 H       1  UNL1        0.0238
     31 H           6.6815    2.7170    0.0000 H       1  UNL1        0.0238
     32 H           5.8996    2.3202    0.0000 H       1  UNL1        0.0238
     33 H           4.9220   -2.6646    0.0000 H       1  UNL1        0.0274
     34 H           5.7690   -2.4376    0.0000 H       1  UNL1        0.0274
     35 H           5.5420   -1.5907    0.0000 H       1  UNL1        0.0274
     36 H           2.9631   -1.8176    0.0000 H       1  UNL1        0.0534
     37 H           3.5000   -2.7476    0.0000 H       1  UNL1        0.0534
     38 H           2.3100    1.2753    0.0000 H       1  UNL1        0.0532
     39 H           1.3800    0.7384    0.0000 H       1  UNL1        0.0532
@<TRIPOS>BOND
     1     1     4    1
     2     1    12    1
     3     2    12    2
     4     3     4    1
     5     3     7    1
     6     3     9    1
     7     3    18    1
     8     4     5    1
     9     4    19    1
    10     5     6    1
    11     5    11    1
    12     5    20    1
    13     6     8    1
    14     6    10    1
    15     6    13    1
    16     7     8    1
    17     7    21    1
    18     7    22    1
    19     8    23    1
    20     8    24    1
    21     9    12    1
    22     9    14    1
    23     9    25    1
    24    10    26    1
    25    10    27    1
    26    10    28    1
    27    11    15    1
    28    11    16    2
    29    13    17    2
    30    13    29    1
    31    14    30    1
    32    14    31    1
    33    14    32    1
    34    15    33    1
    35    15    34    1
    36    15    35    1
    37    16    36    1
    38    16    37    1
    39    17    38    1
    40    17    39    1
