@<TRIPOS>MOLECULE
IMPHY007095
 16 16 0 0 0
SMALL
GASTEIGER

@<TRIPOS>ATOM
      1 O           3.7601    1.1144    0.0000 O.2     1  UNL1       -0.5034
      2 O           5.5202   -0.1643    0.0000 O.2     1  UNL1       -0.2888
      3 C           3.2601   -1.4244    0.0000 C.3     1  UNL1       -0.0211
      4 C           4.2601   -1.4244    0.0000 C.3     1  UNL1        0.0173
      5 C           2.9511   -0.4734    0.0000 C.2     1  UNL1       -0.0274
      6 C           3.7601    0.1144    0.0000 C.2     1  UNL1        0.1581
      7 C           4.5691   -0.4734    0.0000 C.2     1  UNL1        0.1973
      8 C           2.0000   -0.1643    0.0000 C.3     1  UNL1       -0.0399
      9 H           2.6536   -1.5533    0.0000 H       1  UNL1        0.0315
     10 H           3.3249   -2.0410    0.0000 H       1  UNL1        0.0315
     11 H           4.1953   -2.0410    0.0000 H       1  UNL1        0.0349
     12 H           4.8665   -1.5533    0.0000 H       1  UNL1        0.0349
     13 H           2.1916    0.4253    0.0000 H       1  UNL1        0.0276
     14 H           1.4103    0.0272    0.0000 H       1  UNL1        0.0276
     15 H           1.8084   -0.7540    0.0000 H       1  UNL1        0.0276
     16 H           4.2970    1.4244    0.0000 H       1  UNL1        0.2923
@<TRIPOS>BOND
     1     1     6    1
     2     1    16    1
     3     2     7    2
     4     3     4    1
     5     3     5    1
     6     3     9    1
     7     3    10    1
     8     4     7    1
     9     4    11    1
    10     4    12    1
    11     5     6    2
    12     5     8    1
    13     6     7    1
    14     8    13    1
    15     8    14    1
    16     8    15    1
