@<TRIPOS>MOLECULE
IMPHY001844
 54 57 0 0 0
SMALL
GASTEIGER

@<TRIPOS>ATOM
      1 O           9.0067   -0.0896    0.0000 O.3     1  UNL1       -0.3815
      2 O           2.3100   -0.9556    0.0000 O.3     1  UNL1       -0.3945
      3 O           6.3209   -1.3112    0.0000 O.2     1  UNL1       -0.2957
      4 O           9.0067    0.9104    0.0000 O.3     1  UNL1       -0.3844
      5 O           9.8562   -1.0504    0.0000 O.3     1  UNL1       -0.3845
      6 O           8.1406    2.4104    0.0000 O.3     1  UNL1       -0.3906
      7 C           4.6765    0.4104    0.0000 C.3     1  UNL1       -0.0169
      8 C           4.6765   -0.5896    0.0000 C.3     1  UNL1       -0.0286
      9 C           3.8100   -0.0896    0.0000 C.3     1  UNL1       -0.0018
     10 C           5.5426    0.9104    0.0000 C.3     1  UNL1        0.0406
     11 C           5.5426   -1.0896    0.0000 C.3     1  UNL1       -0.0455
     12 C           7.2746   -1.0896    0.0000 C.3     1  UNL1        0.0845
     13 C           6.4086   -0.5896    0.0000 C.3     1  UNL1       -0.0249
     14 C           8.1406   -0.5896    0.0000 C.3     1  UNL1        0.1409
     15 C           6.1319   -0.3292    0.0000 C.2     1  UNL1        0.1534
     16 C           3.3100   -0.9556    0.0000 C.3     1  UNL1        0.0501
     17 C           3.3100    0.7765    0.0000 C.3     1  UNL1       -0.0569
     18 C           6.4086    0.4104    0.0000 C.2     1  UNL1       -0.0696
     19 C           7.4838   -2.0614    0.0000 C.2     1  UNL1       -0.0662
     20 C           8.1406    0.4104    0.0000 C.3     1  UNL1        0.1110
     21 C           8.8776   -1.2566    0.0000 C.3     1  UNL1        0.1087
     22 C           7.2746   -0.0896    0.0000 C.3     1  UNL1       -0.0611
     23 C           7.2746    0.9104    0.0000 C.2     1  UNL1       -0.0167
     24 C           8.4725   -2.1644    0.0000 C.2     1  UNL1       -0.0446
     25 C           7.2746    1.9104    0.0000 C.3     1  UNL1        0.0678
     26 C           8.9725   -3.0304    0.0000 C.3     1  UNL1       -0.0412
     27 H           4.2515    1.1466    0.0000 H       1  UNL1        0.0319
     28 H           4.6765   -1.4396    0.0000 H       1  UNL1        0.0310
     29 H           5.3819    1.7451    0.0000 H       1  UNL1        0.0423
     30 H           5.1440   -1.5645    0.0000 H       1  UNL1        0.0271
     31 H           5.9411   -1.5645    0.0000 H       1  UNL1        0.0271
     32 H           6.0986   -0.0526    0.0000 H       1  UNL1        0.0312
     33 H           3.2023   -1.5662    0.0000 H       1  UNL1        0.0563
     34 H           3.8926   -1.1676    0.0000 H       1  UNL1        0.0563
     35 H           3.8469    1.0865    0.0000 H       1  UNL1        0.0236
     36 H           3.0000    1.3134    0.0000 H       1  UNL1        0.0236
     37 H           2.7731    0.4665    0.0000 H       1  UNL1        0.0236
     38 H           6.4086   -0.2096    0.0000 H       1  UNL1        0.0580
     39 H           7.0698   -2.5228    0.0000 H       1  UNL1        0.0583
     40 H           8.1406    1.0304    0.0000 H       1  UNL1        0.0671
     41 H           9.0394   -0.6581    0.0000 H       1  UNL1        0.0670
     42 H           7.5846   -0.6265    0.0000 H       1  UNL1        0.0233
     43 H           7.8116    0.2204    0.0000 H       1  UNL1        0.0233
     44 H           6.9646    0.4474    0.0000 H       1  UNL1        0.0233
     45 H           9.5436   -0.3996    0.0000 H       1  UNL1        0.2105
     46 H           2.0000   -1.4925    0.0000 H       1  UNL1        0.2094
     47 H           7.0626    2.4931    0.0000 H       1  UNL1        0.0605
     48 H           6.6640    1.8028    0.0000 H       1  UNL1        0.0605
     49 H           8.4356   -3.3404    0.0000 H       1  UNL1        0.0275
     50 H           9.2825   -3.5674    0.0000 H       1  UNL1        0.0275
     51 H           9.5095   -2.7204    0.0000 H       1  UNL1        0.0275
     52 H           9.0067    1.5304    0.0000 H       1  UNL1        0.2103
     53 H          10.2702   -1.5119    0.0000 H       1  UNL1        0.2103
     54 H           8.1406    3.0304    0.0000 H       1  UNL1        0.2098
@<TRIPOS>BOND
     1    14     1    1
     2     1    45    1
     3     2    16    1
     4     2    46    1
     5     3    15    2
     6    20     4    1
     7     4    52    1
     8    21     5    1
     9     5    53    1
    10     6    25    1
    11     6    54    1
    12     7     8    1
    13     7     9    1
    14     7    10    1
    15     7    27    1
    16     8     9    1
    17     8    11    1
    18     8    28    1
    19     9    16    1
    20     9    17    1
    21    10    15    1
    22    10    18    1
    23    10    29    1
    24    11    13    1
    25    11    30    1
    26    11    31    1
    27    12    13    1
    28    12    14    1
    29    12    15    1
    30    12    19    1
    31    13    22    1
    32    13    32    1
    33    14    20    1
    34    14    21    1
    35    16    33    1
    36    16    34    1
    37    17    35    1
    38    17    36    1
    39    17    37    1
    40    18    23    2
    41    18    38    1
    42    19    24    2
    43    19    39    1
    44    20    23    1
    45    20    40    1
    46    21    24    1
    47    21    41    1
    48    22    42    1
    49    22    43    1
    50    22    44    1
    51    23    25    1
    52    24    26    1
    53    25    47    1
    54    25    48    1
    55    26    49    1
    56    26    50    1
    57    26    51    1
