@<TRIPOS>MOLECULE
IMPHY007172
 82 86 0 0 0
SMALL
GASTEIGER

@<TRIPOS>ATOM
      1 O           7.2764   -4.5547    0.0000 O.3     1  UNL1       -0.4791
      2 O           6.9192   -1.2504    0.0000 O.3     1  UNL1       -0.4490
      3 O           8.5655   -1.7885    0.0000 O.2     1  UNL1       -0.2500
      4 O           5.4641   -5.7500    0.0000 O.3     1  UNL1       -0.5033
      5 O          10.8600   -5.4820    0.0000 O.3     1  UNL1       -0.5033
      6 O          11.8600   -3.7500    0.0000 O.3     1  UNL1       -0.5033
      7 O           3.7320    0.2500    0.0000 O.3     1  UNL1       -0.4465
      8 O           8.5190    0.8568    0.0000 O.3     1  UNL1       -0.4780
      9 O           8.8762   -0.8380    0.0000 O.2     1  UNL1       -0.2468
     10 O           5.4641    0.2500    0.0000 O.2     1  UNL1       -0.2456
     11 O           9.1403    2.7578    0.0000 O.3     1  UNL1       -0.5033
     12 O           7.8046    4.2465    0.0000 O.3     1  UNL1       -0.5033
     13 O           4.5981    2.7500    0.0000 O.3     1  UNL1       -0.4780
     14 O           5.4641    1.2500    0.0000 O.2     1  UNL1       -0.2468
     15 O           4.5981    4.7500    0.0000 O.3     1  UNL1       -0.5033
     16 O           2.8660    5.7500    0.0000 O.3     1  UNL1       -0.5033
     17 C           7.2764   -2.9453    0.0000 C.3     1  UNL1        0.1263
     18 C           7.8600   -3.7500    0.0000 C.3     1  UNL1        0.1425
     19 C           6.3301   -3.2500    0.0000 C.ar    1  UNL1        0.0227
     20 C           6.3301   -4.2500    0.0000 C.ar    1  UNL1        0.1672
     21 C           8.8600   -3.7500    0.0000 C.ar    1  UNL1       -0.0026
     22 C           5.4641   -2.7500    0.0000 C.ar    1  UNL1       -0.0170
     23 C           7.5870   -1.9948    0.0000 C.2     1  UNL1        0.3195
     24 C           5.4641   -4.7500    0.0000 C.ar    1  UNL1        0.1588
     25 C           4.5981   -3.2500    0.0000 C.ar    1  UNL1       -0.0506
     26 C           9.3600   -4.6160    0.0000 C.ar    1  UNL1       -0.0098
     27 C           9.3600   -2.8840    0.0000 C.ar    1  UNL1       -0.0514
     28 C           4.5981   -4.2500    0.0000 C.ar    1  UNL1       -0.0159
     29 C           5.4641   -1.7500    0.0000 C.2     1  UNL1       -0.0474
     30 C           7.2298   -0.2999    0.0000 C.3     1  UNL1        0.2026
     31 C          10.3600   -4.6160    0.0000 C.ar    1  UNL1        0.1586
     32 C          10.3600   -2.8840    0.0000 C.ar    1  UNL1       -0.0162
     33 C           6.5620    0.4444    0.0000 C.3     1  UNL1        0.0203
     34 C          10.8600   -3.7500    0.0000 C.ar    1  UNL1        0.1582
     35 C           4.5981   -1.2500    0.0000 C.2     1  UNL1        0.0231
     36 C           6.8726    1.3949    0.0000 C.ar    1  UNL1       -0.0396
     37 C           8.2083   -0.0937    0.0000 C.2     1  UNL1        0.3463
     38 C           4.5981   -0.2500    0.0000 C.2     1  UNL1        0.3327
     39 C           7.8512    1.6011    0.0000 C.ar    1  UNL1       -0.0132
     40 C           6.2048    2.1392    0.0000 C.ar    1  UNL1       -0.0548
     41 C           3.7320    1.2500    0.0000 C.3     1  UNL1        0.2029
     42 C           2.8660    1.7500    0.0000 C.3     1  UNL1        0.0203
     43 C           8.1618    2.5516    0.0000 C.ar    1  UNL1        0.1585
     44 C           6.5155    3.0897    0.0000 C.ar    1  UNL1       -0.0163
     45 C           7.4940    3.2959    0.0000 C.ar    1  UNL1        0.1582
     46 C           2.8660    2.7500    0.0000 C.ar    1  UNL1       -0.0396
     47 C           4.5981    1.7500    0.0000 C.2     1  UNL1        0.3463
     48 C           3.7320    3.2500    0.0000 C.ar    1  UNL1       -0.0132
     49 C           2.0000    3.2500    0.0000 C.ar    1  UNL1       -0.0548
     50 C           3.7320    4.2500    0.0000 C.ar    1  UNL1        0.1585
     51 C           2.0000    4.2500    0.0000 C.ar    1  UNL1       -0.0163
     52 C           2.8660    4.7500    0.0000 C.ar    1  UNL1        0.1582
     53 H           6.8389   -2.5059    0.0000 H       1  UNL1        0.0504
     54 H           8.1417   -4.3023    0.0000 H       1  UNL1        0.0796
     55 H           4.0611   -2.9400    0.0000 H       1  UNL1        0.0625
     56 H           9.0500   -5.1530    0.0000 H       1  UNL1        0.0659
     57 H           9.0500   -2.3470    0.0000 H       1  UNL1        0.0623
     58 H           4.0611   -4.5600    0.0000 H       1  UNL1        0.0655
     59 H           6.0010   -1.4400    0.0000 H       1  UNL1        0.0626
     60 H           7.6439   -0.7614    0.0000 H       1  UNL1        0.0856
     61 H          10.6700   -2.3470    0.0000 H       1  UNL1        0.0655
     62 H           6.0151    0.7364    0.0000 H       1  UNL1        0.0355
     63 H           6.1794   -0.0435    0.0000 H       1  UNL1        0.0355
     64 H           4.9272   -6.0600    0.0000 H       1  UNL1        0.2923
     65 H           4.0611   -1.5600    0.0000 H       1  UNL1        0.0689
     66 H          10.5500   -6.0190    0.0000 H       1  UNL1        0.2923
     67 H           8.2652    1.1396    0.0000 H       1  UNL1        0.0658
     68 H           5.5981    2.0113    0.0000 H       1  UNL1        0.0621
     69 H          12.1700   -3.2131    0.0000 H       1  UNL1        0.2923
     70 H           4.2690    0.9400    0.0000 H       1  UNL1        0.0856
     71 H           2.2554    1.8577    0.0000 H       1  UNL1        0.0355
     72 H           2.6540    1.1674    0.0000 H       1  UNL1        0.0355
     73 H           6.1014    3.5512    0.0000 H       1  UNL1        0.0655
     74 H           9.1257    0.9847    0.0000 H       1  UNL1        0.2952
     75 H           4.2690    2.9400    0.0000 H       1  UNL1        0.0658
     76 H           1.4631    2.9400    0.0000 H       1  UNL1        0.0621
     77 H           9.3329    3.3472    0.0000 H       1  UNL1        0.2923
     78 H           1.4631    4.5600    0.0000 H       1  UNL1        0.0655
     79 H           7.3906    4.7079    0.0000 H       1  UNL1        0.2923
     80 H           5.1350    3.0600    0.0000 H       1  UNL1        0.2952
     81 H           4.5981    5.3700    0.0000 H       1  UNL1        0.2923
     82 H           2.3291    6.0600    0.0000 H       1  UNL1        0.2923
@<TRIPOS>BOND
     1     1    18    1
     2     1    20    1
     3     2    23    1
     4    30     2    1
     5     3    23    2
     6     4    24    1
     7     4    64    1
     8     5    31    1
     9     5    66    1
    10     6    34    1
    11     6    69    1
    12     7    38    1
    13    41     7    1
    14     8    37    1
    15     8    74    1
    16     9    37    2
    17    10    38    2
    18    11    43    1
    19    11    77    1
    20    12    45    1
    21    12    79    1
    22    13    47    1
    23    13    80    1
    24    14    47    2
    25    15    50    1
    26    15    81    1
    27    16    52    1
    28    16    82    1
    29    17    18    1
    30    17    19    1
    31    17    23    1
    32    17    53    1
    33    18    21    1
    34    18    54    1
    35    19    20   ar
    36    19    22   ar
    37    20    24   ar
    38    21    26   ar
    39    21    27   ar
    40    22    25   ar
    41    22    29    1
    42    24    28   ar
    43    25    28   ar
    44    25    55    1
    45    26    31   ar
    46    26    56    1
    47    27    32   ar
    48    27    57    1
    49    28    58    1
    50    29    35    2
    51    29    59    1
    52    30    33    1
    53    30    37    1
    54    30    60    1
    55    31    34   ar
    56    32    34   ar
    57    32    61    1
    58    33    36    1
    59    33    62    1
    60    33    63    1
    61    35    38    1
    62    35    65    1
    63    36    39   ar
    64    36    40   ar
    65    39    43   ar
    66    39    67    1
    67    40    44   ar
    68    40    68    1
    69    41    42    1
    70    41    47    1
    71    41    70    1
    72    42    46    1
    73    42    71    1
    74    42    72    1
    75    43    45   ar
    76    44    45   ar
    77    44    73    1
    78    46    48   ar
    79    46    49   ar
    80    48    50   ar
    81    48    75    1
    82    49    51   ar
    83    49    76    1
    84    50    52   ar
    85    51    52   ar
    86    51    78    1
