@<TRIPOS>MOLECULE
IMPHY014789
 53 52 0 0 0
SMALL
GASTEIGER

@<TRIPOS>ATOM
      1 O           7.1962    0.4400    0.0000 O.2     1  UNL1       -0.2974
      2 O          14.9904    1.9400    0.0000 O.3     1  UNL1       -0.4806
      3 O          14.1244    0.4400    0.0000 O.2     1  UNL1       -0.2510
      4 C           9.7942    1.9400    0.0000 C.3     1  UNL1       -0.0527
      5 C          10.6603    1.4400    0.0000 C.3     1  UNL1       -0.0530
      6 C           8.9282    1.4400    0.0000 C.3     1  UNL1       -0.0464
      7 C          11.5263    1.9400    0.0000 C.3     1  UNL1       -0.0526
      8 C           8.0622    1.9400    0.0000 C.3     1  UNL1        0.0058
      9 C          12.3923    1.4400    0.0000 C.3     1  UNL1       -0.0430
     10 C           7.1962    1.4400    0.0000 C.2     1  UNL1        0.1337
     11 C           6.3301    1.9400    0.0000 C.3     1  UNL1        0.0092
     12 C          13.2583    1.9400    0.0000 C.3     1  UNL1        0.0448
     13 C           2.8660   -0.0600    0.0000 C.3     1  UNL1       -0.0496
     14 C           5.4641    1.4400    0.0000 C.3     1  UNL1       -0.0281
     15 C           2.8660   -1.0600    0.0000 C.3     1  UNL1       -0.0530
     16 C           3.7320    0.4400    0.0000 C.3     1  UNL1       -0.0348
     17 C           2.0000   -1.5600    0.0000 C.3     1  UNL1       -0.0559
     18 C           4.5981    1.9400    0.0000 C.2     1  UNL1       -0.0875
     19 C           3.7320    1.4400    0.0000 C.2     1  UNL1       -0.0879
     20 C          14.1244    1.4400    0.0000 C.2     1  UNL1        0.3047
     21 C           2.0000   -2.5600    0.0000 C.3     1  UNL1       -0.0653
     22 H          10.1928    2.4150    0.0000 H       1  UNL1        0.0265
     23 H           9.3957    2.4150    0.0000 H       1  UNL1        0.0265
     24 H          10.2617    0.9651    0.0000 H       1  UNL1        0.0265
     25 H          11.0588    0.9651    0.0000 H       1  UNL1        0.0265
     26 H           8.5297    0.9651    0.0000 H       1  UNL1        0.0269
     27 H           9.3267    0.9651    0.0000 H       1  UNL1        0.0269
     28 H          11.9248    2.4150    0.0000 H       1  UNL1        0.0265
     29 H          11.1278    2.4150    0.0000 H       1  UNL1        0.0265
     30 H           8.4607    2.4150    0.0000 H       1  UNL1        0.0342
     31 H           7.6636    2.4150    0.0000 H       1  UNL1        0.0342
     32 H          11.9938    0.9651    0.0000 H       1  UNL1        0.0270
     33 H          12.7908    0.9651    0.0000 H       1  UNL1        0.0270
     34 H           6.7287    2.4150    0.0000 H       1  UNL1        0.0345
     35 H           5.9316    2.4150    0.0000 H       1  UNL1        0.0345
     36 H          13.6569    2.4150    0.0000 H       1  UNL1        0.0377
     37 H          12.8598    2.4150    0.0000 H       1  UNL1        0.0377
     38 H           2.6540    0.5226    0.0000 H       1  UNL1        0.0268
     39 H           2.2554   -0.1677    0.0000 H       1  UNL1        0.0268
     40 H           5.0656    0.9651    0.0000 H       1  UNL1        0.0311
     41 H           5.8626    0.9651    0.0000 H       1  UNL1        0.0311
     42 H           3.0781   -1.6426    0.0000 H       1  UNL1        0.0265
     43 H           3.4766   -0.9523    0.0000 H       1  UNL1        0.0265
     44 H           3.9441   -0.1426    0.0000 H       1  UNL1        0.0307
     45 H           4.3426    0.5477    0.0000 H       1  UNL1        0.0307
     46 H           1.7880   -0.9774    0.0000 H       1  UNL1        0.0263
     47 H           1.3894   -1.6677    0.0000 H       1  UNL1        0.0263
     48 H           4.5981    2.5600    0.0000 H       1  UNL1        0.0569
     49 H           3.1951    1.7500    0.0000 H       1  UNL1        0.0569
     50 H           1.3800   -2.5600    0.0000 H       1  UNL1        0.0230
     51 H           2.0000   -3.1800    0.0000 H       1  UNL1        0.0230
     52 H           2.6200   -2.5600    0.0000 H       1  UNL1        0.0230
     53 H          15.5273    1.6300    0.0000 H       1  UNL1        0.2951
@<TRIPOS>BOND
     1     1    10    2
     2     2    20    1
     3     2    53    1
     4     3    20    2
     5     4     5    1
     6     4     6    1
     7     4    22    1
     8     4    23    1
     9     5     7    1
    10     5    24    1
    11     5    25    1
    12     6     8    1
    13     6    26    1
    14     6    27    1
    15     7     9    1
    16     7    28    1
    17     7    29    1
    18     8    10    1
    19     8    30    1
    20     8    31    1
    21     9    12    1
    22     9    32    1
    23     9    33    1
    24    10    11    1
    25    11    14    1
    26    11    34    1
    27    11    35    1
    28    12    20    1
    29    12    36    1
    30    12    37    1
    31    13    15    1
    32    13    16    1
    33    13    38    1
    34    13    39    1
    35    14    18    1
    36    14    40    1
    37    14    41    1
    38    15    17    1
    39    15    42    1
    40    15    43    1
    41    16    19    1
    42    16    44    1
    43    16    45    1
    44    17    21    1
    45    17    46    1
    46    17    47    1
    47    18    19    2
    48    18    48    1
    49    19    49    1
    50    21    50    1
    51    21    51    1
    52    21    52    1
