@<TRIPOS>MOLECULE
IMPHY015482
 38 39 0 0 0
SMALL
GASTEIGER

@<TRIPOS>ATOM
      1 O           2.0000   -0.7500    0.0000 O.2     1  UNL1       -0.2924
      2 C           4.5981    0.7500    0.0000 C.3     1  UNL1       -0.0274
      3 C           4.5981   -0.2500    0.0000 C.3     1  UNL1        0.0088
      4 C           3.7320    1.2500    0.0000 C.3     1  UNL1       -0.0332
      5 C           5.4920    1.2847    0.0000 C.3     1  UNL1       -0.0454
      6 C           2.8660    0.7500    0.0000 C.3     1  UNL1        0.0130
      7 C           3.7320   -0.7500    0.0000 C.2     1  UNL1        0.0008
      8 C           6.3981    0.7708    0.0000 C.3     1  UNL1       -0.0317
      9 C           5.4920   -0.7847    0.0000 C.2     1  UNL1       -0.0772
     10 C           2.8660   -0.2500    0.0000 C.2     1  UNL1        0.1600
     11 C           6.3981   -0.2708    0.0000 C.2     1  UNL1       -0.0759
     12 C           3.7320    2.2500    0.0000 C.3     1  UNL1       -0.0617
     13 C           3.7320   -1.7500    0.0000 C.2     1  UNL1       -0.0687
     14 C           7.2622   -0.7742    0.0000 C.3     1  UNL1       -0.0438
     15 C           2.8660   -2.2500    0.0000 C.3     1  UNL1       -0.0434
     16 C           4.5981   -2.2500    0.0000 C.3     1  UNL1       -0.0434
     17 H           5.1374    0.4441    0.0000 H       1  UNL1        0.0312
     18 H           4.5933   -0.8700    0.0000 H       1  UNL1        0.0395
     19 H           4.2690    1.5600    0.0000 H       1  UNL1        0.0305
     20 H           5.8856    1.7637    0.0000 H       1  UNL1        0.0271
     21 H           5.0874    1.7544    0.0000 H       1  UNL1        0.0271
     22 H           2.6540    1.3326    0.0000 H       1  UNL1        0.0348
     23 H           2.2554    0.6423    0.0000 H       1  UNL1        0.0348
     24 H           7.0089    0.6647    0.0000 H       1  UNL1        0.0310
     25 H           6.6071    1.3545    0.0000 H       1  UNL1        0.0310
     26 H           5.4848   -1.4046    0.0000 H       1  UNL1        0.0578
     27 H           4.3520    2.2500    0.0000 H       1  UNL1        0.0233
     28 H           3.7320    2.8700    0.0000 H       1  UNL1        0.0233
     29 H           3.1120    2.2500    0.0000 H       1  UNL1        0.0233
     30 H           6.9501   -1.3099    0.0000 H       1  UNL1        0.0274
     31 H           7.7979   -1.0862    0.0000 H       1  UNL1        0.0274
     32 H           7.5742   -0.2384    0.0000 H       1  UNL1        0.0274
     33 H           2.5560   -1.7131    0.0000 H       1  UNL1        0.0274
     34 H           2.3291   -2.5600    0.0000 H       1  UNL1        0.0274
     35 H           3.1760   -2.7869    0.0000 H       1  UNL1        0.0274
     36 H           4.2881   -2.7869    0.0000 H       1  UNL1        0.0274
     37 H           5.1350   -2.5600    0.0000 H       1  UNL1        0.0274
     38 H           4.9081   -1.7131    0.0000 H       1  UNL1        0.0274
@<TRIPOS>BOND
     1     1    10    2
     2     2     3    1
     3     2     4    1
     4     2     5    1
     5     2    17    1
     6     3     7    1
     7     3     9    1
     8     3    18    1
     9     4     6    1
    10     4    12    1
    11     4    19    1
    12     5     8    1
    13     5    20    1
    14     5    21    1
    15     6    10    1
    16     6    22    1
    17     6    23    1
    18     7    10    1
    19     7    13    2
    20     8    11    1
    21     8    24    1
    22     8    25    1
    23     9    11    2
    24     9    26    1
    25    11    14    1
    26    12    27    1
    27    12    28    1
    28    12    29    1
    29    13    15    1
    30    13    16    1
    31    14    30    1
    32    14    31    1
    33    14    32    1
    34    15    33    1
    35    15    34    1
    36    15    35    1
    37    16    36    1
    38    16    37    1
    39    16    38    1
