@<TRIPOS>MOLECULE
IMPHY016640
 27 27 0 0 0
SMALL
GASTEIGER

@<TRIPOS>ATOM
      1 O           3.7320    1.8660    0.0000 O.2     1  UNL1       -0.2971
      2 C           3.7320    0.1340    0.0000 C.3     1  UNL1        0.0298
      3 C           4.5981   -0.3660    0.0000 C.3     1  UNL1       -0.0372
      4 C           2.8660   -0.3660    0.0000 C.3     1  UNL1       -0.0199
      5 C           4.5981   -1.3660    0.0000 C.3     1  UNL1       -0.0336
      6 C           2.8660   -1.3660    0.0000 C.2     1  UNL1       -0.0756
      7 C           3.2320    1.0000    0.0000 C.3     1  UNL1       -0.0525
      8 C           4.2320    1.0000    0.0000 C.2     1  UNL1        0.1365
      9 C           3.7320   -1.8660    0.0000 C.2     1  UNL1       -0.0850
     10 C           2.0000   -1.8660    0.0000 C.3     1  UNL1       -0.0438
     11 C           5.2320    1.0000    0.0000 C.3     1  UNL1       -0.0055
     12 H           5.2087   -0.4737    0.0000 H       1  UNL1        0.0278
     13 H           4.8101    0.2166    0.0000 H       1  UNL1        0.0278
     14 H           2.6540    0.2166    0.0000 H       1  UNL1        0.0319
     15 H           2.2554   -0.4737    0.0000 H       1  UNL1        0.0319
     16 H           4.8101   -1.9486    0.0000 H       1  UNL1        0.0308
     17 H           5.2087   -1.2584    0.0000 H       1  UNL1        0.0308
     18 H           3.7690    1.3100    0.0000 H       1  UNL1        0.0239
     19 H           2.9220    1.5369    0.0000 H       1  UNL1        0.0239
     20 H           2.6951    0.6900    0.0000 H       1  UNL1        0.0239
     21 H           3.7320   -2.4860    0.0000 H       1  UNL1        0.0572
     22 H           1.6900   -1.3291    0.0000 H       1  UNL1        0.0274
     23 H           1.4631   -2.1760    0.0000 H       1  UNL1        0.0274
     24 H           2.3100   -2.4030    0.0000 H       1  UNL1        0.0274
     25 H           5.2320    0.3800    0.0000 H       1  UNL1        0.0306
     26 H           5.8520    1.0000    0.0000 H       1  UNL1        0.0306
     27 H           5.2320    1.6200    0.0000 H       1  UNL1        0.0306
@<TRIPOS>BOND
     1     1     8    2
     2     2     3    1
     3     2     4    1
     4     2     7    1
     5     2     8    1
     6     3     5    1
     7     3    12    1
     8     3    13    1
     9     4     6    1
    10     4    14    1
    11     4    15    1
    12     5     9    1
    13     5    16    1
    14     5    17    1
    15     6     9    2
    16     6    10    1
    17     7    18    1
    18     7    19    1
    19     7    20    1
    20     8    11    1
    21     9    21    1
    22    10    22    1
    23    10    23    1
    24    10    24    1
    25    11    25    1
    26    11    26    1
    27    11    27    1
