@<TRIPOS>MOLECULE
IMPHY006880
 49 53 0 0 0
SMALL
GASTEIGER

@<TRIPOS>ATOM
      1 O           6.3678    0.6672    0.0000 O.3     1  UNL1       -0.3748
      2 O           3.4842   -1.0204    0.0000 O.2     1  UNL1       -0.2721
      3 O           4.1565   -3.0895    0.0000 O.3     1  UNL1       -0.2756
      4 N           3.0886    0.8065    0.0000 N.3     1  UNL1       -0.3092
      5 N           4.7443   -2.2805    0.0000 N.am    1  UNL1       -0.1476
      6 C           4.7443    1.4490    0.0000 C.3     1  UNL1        0.0045
      7 C           5.2443   -0.7417    0.0000 C.3     1  UNL1        0.1035
      8 C           4.3788    2.4244    0.0000 C.3     1  UNL1       -0.0100
      9 C           4.1208    0.6672    0.0000 C.3     1  UNL1        0.0147
     10 C           6.1453   -0.3078    0.0000 C.3     1  UNL1        0.0773
     11 C           4.3434   -0.3078    0.0000 C.3     1  UNL1       -0.0166
     12 C           4.4733    0.5483    0.0000 C.3     1  UNL1       -0.0184
     13 C           5.7443    1.4490    0.0000 C.3     1  UNL1        0.0528
     14 C           3.3500    2.5875    0.0000 C.2     1  UNL1       -0.0564
     15 C           6.0533   -1.3294    0.0000 C.ar    1  UNL1       -0.0062
     16 C           4.4353   -1.3294    0.0000 C.2     1  UNL1        0.2559
     17 C           2.7005    1.7732    0.0000 C.3     1  UNL1        0.0178
     18 C           5.7443   -2.2805    0.0000 C.ar    1  UNL1        0.0686
     19 C           2.9882    3.5198    0.0000 C.2     1  UNL1       -0.0864
     20 C           7.0688   -1.0972    0.0000 C.ar    1  UNL1       -0.0556
     21 C           6.4293   -3.0652    0.0000 C.ar    1  UNL1       -0.0377
     22 C           7.7717   -1.8659    0.0000 C.ar    1  UNL1       -0.0614
     23 C           2.0000    3.6727    0.0000 C.3     1  UNL1       -0.0465
     24 C           7.4498   -2.8565    0.0000 C.ar    1  UNL1       -0.0599
     25 C           4.5633   -4.0031    0.0000 C.3     1  UNL1        0.0629
     26 H           5.2743    2.1135    0.0000 H       1  UNL1        0.0344
     27 H           4.3360    3.2733    0.0000 H       1  UNL1        0.0351
     28 H           3.5909    0.0026    0.0000 H       1  UNL1        0.0464
     29 H           6.9111    0.0610    0.0000 H       1  UNL1        0.0610
     30 H           3.7234   -0.3078    0.0000 H       1  UNL1        0.0294
     31 H           4.2054   -0.9122    0.0000 H       1  UNL1        0.0294
     32 H           3.8581    0.6251    0.0000 H       1  UNL1        0.0296
     33 H           4.2909   -0.0442    0.0000 H       1  UNL1        0.0296
     34 H           6.3029    1.7180    0.0000 H       1  UNL1        0.0563
     35 H           5.6064    2.0534    0.0000 H       1  UNL1        0.0563
     36 H           2.7076    0.3173    0.0000 H       1  UNL1        0.1225
     37 H           2.2891    2.2370    0.0000 H       1  UNL1        0.0470
     38 H           2.1732    1.4472    0.0000 H       1  UNL1        0.0470
     39 H           3.3767    4.0031    0.0000 H       1  UNL1        0.0569
     40 H           7.2535   -0.5054    0.0000 H       1  UNL1        0.0621
     41 H           6.2309   -3.6526    0.0000 H       1  UNL1        0.0637
     42 H           8.3776   -1.7346    0.0000 H       1  UNL1        0.0618
     43 H           2.0948    4.2854    0.0000 H       1  UNL1        0.0272
     44 H           1.3873    3.7674    0.0000 H       1  UNL1        0.0272
     45 H           1.9052    3.0600    0.0000 H       1  UNL1        0.0272
     46 H           7.8629   -3.3189    0.0000 H       1  UNL1        0.0618
     47 H           3.9969   -4.2552    0.0000 H       1  UNL1        0.0547
     48 H           4.8154   -4.5695    0.0000 H       1  UNL1        0.0547
     49 H           5.1297   -3.7509    0.0000 H       1  UNL1        0.0547
@<TRIPOS>BOND
     1     1    10    1
     2     1    13    1
     3     2    16    2
     4     3     5    1
     5     3    25    1
     6     4     9    1
     7     4    17    1
     8     4    36    1
     9     5    16   am
    10     5    18    1
    11     6     8    1
    12     6     9    1
    13     6    13    1
    14     6    26    1
    15     7    10    1
    16     7    11    1
    17     7    15    1
    18     7    16    1
    19     8    12    1
    20     8    14    1
    21     8    27    1
    22     9    11    1
    23     9    28    1
    24    10    12    1
    25    10    29    1
    26    11    30    1
    27    11    31    1
    28    12    32    1
    29    12    33    1
    30    13    34    1
    31    13    35    1
    32    14    17    1
    33    14    19    2
    34    15    18   ar
    35    15    20   ar
    36    17    37    1
    37    17    38    1
    38    18    21   ar
    39    19    23    1
    40    19    39    1
    41    20    22   ar
    42    20    40    1
    43    21    24   ar
    44    21    41    1
    45    22    24   ar
    46    22    42    1
    47    23    43    1
    48    23    44    1
    49    23    45    1
    50    24    46    1
    51    25    47    1
    52    25    48    1
    53    25    49    1
