@<TRIPOS>MOLECULE
IMPHY007573
 29 31 0 0 0
SMALL
GASTEIGER

@<TRIPOS>ATOM
      1 O           7.7435   -1.7403    0.0000 O.3     1  UNL1       -0.4951
      2 N           4.8717    1.1203    0.0000 N.ar    1  UNL1       -0.3541
      3 C           4.3717   -0.4185    0.0000 C.ar    1  UNL1        0.0078
      4 C           5.3717   -0.4185    0.0000 C.ar    1  UNL1        0.0109
      5 C           4.0627    0.5325    0.0000 C.ar    1  UNL1        0.0475
      6 C           5.6808    0.5325    0.0000 C.ar    1  UNL1        0.0477
      7 C           3.6868   -1.2033    0.0000 C.ar    1  UNL1       -0.0491
      8 C           6.0567   -1.2033    0.0000 C.ar    1  UNL1       -0.0102
      9 C           3.0473    0.7648    0.0000 C.ar    1  UNL1       -0.0375
     10 C           2.6663   -0.9946    0.0000 C.ar    1  UNL1       -0.0497
     11 C           6.6962    0.7648    0.0000 C.ar    1  UNL1       -0.0343
     12 C           2.3444   -0.0039    0.0000 C.ar    1  UNL1       -0.0569
     13 C           7.0772   -0.9946    0.0000 C.ar    1  UNL1        0.1208
     14 C           7.3991   -0.0039    0.0000 C.ar    1  UNL1       -0.0180
     15 C           2.0000   -1.7403    0.0000 C.3     1  UNL1       -0.0397
     16 C           8.7224   -1.5362    0.0000 C.3     1  UNL1        0.0788
     17 H           4.8717    1.7403    0.0000 H       1  UNL1        0.1659
     18 H           3.8852   -1.7907    0.0000 H       1  UNL1        0.0627
     19 H           5.8583   -1.7907    0.0000 H       1  UNL1        0.0661
     20 H           2.8626    1.3566    0.0000 H       1  UNL1        0.0638
     21 H           6.8809    1.3566    0.0000 H       1  UNL1        0.0639
     22 H           1.7384    0.1273    0.0000 H       1  UNL1        0.0621
     23 H           8.0050    0.1273    0.0000 H       1  UNL1        0.0655
     24 H           1.5376   -1.3272    0.0000 H       1  UNL1        0.0278
     25 H           1.5869   -2.2026    0.0000 H       1  UNL1        0.0278
     26 H           2.4623   -2.1534    0.0000 H       1  UNL1        0.0278
     27 H           8.8490   -2.1431    0.0000 H       1  UNL1        0.0660
     28 H           9.3294   -1.4096    0.0000 H       1  UNL1        0.0660
     29 H           8.5958   -0.9292    0.0000 H       1  UNL1        0.0660
@<TRIPOS>BOND
     1     1    13    1
     2     1    16    1
     3     2     5   ar
     4     2     6   ar
     5     2    17    1
     6     3     4   ar
     7     3     5   ar
     8     3     7   ar
     9     4     6   ar
    10     4     8   ar
    11     5     9   ar
    12     6    11   ar
    13     7    10   ar
    14     7    18    1
    15     8    13   ar
    16     8    19    1
    17     9    12   ar
    18     9    20    1
    19    10    12   ar
    20    10    15    1
    21    11    14   ar
    22    11    21    1
    23    12    22    1
    24    13    14   ar
    25    14    23    1
    26    15    24    1
    27    15    25    1
    28    15    26    1
    29    16    27    1
    30    16    28    1
    31    16    29    1
