@<TRIPOS>MOLECULE
IMPHY011445
 70 75 0 0 0
SMALL
GASTEIGER

@<TRIPOS>ATOM
      1 O           3.6304   -0.7026    0.0000 O.3     1  UNL1       -0.3877
      2 O           5.1480   -1.8714    0.0000 O.3     1  UNL1       -0.3790
      3 O           6.9706    1.8904    0.0000 O.3     1  UNL1       -0.3912
      4 O           3.2538    1.4645    0.0000 O.3     1  UNL1       -0.3910
      5 O           2.8530    2.3483    0.0000 O.3     1  UNL1       -0.3793
      6 O           7.8367   -2.3448    0.0000 O.3     1  UNL1       -0.3824
      7 N           8.1660    0.0613    0.0000 N.3     1  UNL1       -0.2980
      8 C           6.2193    0.4566    0.0000 C.3     1  UNL1        0.0217
      9 C           6.2193   -0.4110    0.0000 C.3     1  UNL1        0.0043
     10 C           5.5410    0.9975    0.0000 C.3     1  UNL1       -0.0230
     11 C           7.2213    0.3505    0.0000 C.3     1  UNL1        0.0268
     12 C           4.6952   -0.7589    0.0000 C.3     1  UNL1        0.0310
     13 C           4.6952    0.8044    0.0000 C.3     1  UNL1        0.0182
     14 C           4.3188    0.0228    0.0000 C.3     1  UNL1        0.0805
     15 C           5.5410   -0.9519    0.0000 C.3     1  UNL1        0.0693
     16 C           6.9706   -0.8448    0.0000 C.3     1  UNL1        0.0127
     17 C           6.9706    0.8904    0.0000 C.3     1  UNL1        0.0629
     18 C           5.6188    1.8616    0.0000 C.3     1  UNL1       -0.0416
     19 C           4.8210    2.2026    0.0000 C.3     1  UNL1        0.0120
     20 C           4.2502    1.5492    0.0000 C.3     1  UNL1        0.0661
     21 C           8.1660   -0.6906    0.0000 C.3     1  UNL1        0.0073
     22 C           3.6738    0.2927    0.0000 C.3     1  UNL1        0.0035
     23 C           7.7220   -0.4110    0.0000 C.3     1  UNL1       -0.0414
     24 C           3.6738    1.7772    0.0000 C.3     1  UNL1        0.0661
     25 C           7.7220    0.4566    0.0000 C.3     1  UNL1       -0.0256
     26 C           6.9706   -1.8448    0.0000 C.3     1  UNL1        0.0544
     27 C           8.9699    0.6560    0.0000 C.3     1  UNL1       -0.0036
     28 C           5.7478   -2.6716    0.0000 C.3     1  UNL1        0.0368
     29 C           9.8869    0.2571    0.0000 C.3     1  UNL1       -0.0523
     30 C           2.9371    3.3448    0.0000 C.3     1  UNL1        0.0368
     31 C           7.8367   -3.3448    0.0000 C.3     1  UNL1        0.0365
     32 H           6.2828   -1.2586    0.0000 H       1  UNL1        0.0339
     33 H           6.3226    1.3316    0.0000 H       1  UNL1        0.0312
     34 H           7.3452    0.9580    0.0000 H       1  UNL1        0.0473
     35 H           4.1652   -1.4234    0.0000 H       1  UNL1        0.0369
     36 H           3.8460    0.7663    0.0000 H       1  UNL1        0.0357
     37 H           5.7414   -1.5386    0.0000 H       1  UNL1        0.0603
     38 H           6.4337    1.2004    0.0000 H       1  UNL1        0.0599
     39 H           5.8015    2.4540    0.0000 H       1  UNL1        0.0272
     40 H           6.2271    1.7418    0.0000 H       1  UNL1        0.0272
     41 H           4.8418    3.0523    0.0000 H       1  UNL1        0.0351
     42 H           3.9701    2.1023    0.0000 H       1  UNL1        0.0600
     43 H           8.7854   -0.6640    0.0000 H       1  UNL1        0.0433
     44 H           8.2189   -1.3083    0.0000 H       1  UNL1        0.0433
     45 H           3.5119   -0.3058    0.0000 H       1  UNL1        0.0318
     46 H           3.0592    0.3744    0.0000 H       1  UNL1        0.0318
     47 H           8.3326   -0.3033    0.0000 H       1  UNL1        0.0273
     48 H           7.9340   -0.9936    0.0000 H       1  UNL1        0.0273
     49 H           3.7520    2.3923    0.0000 H       1  UNL1        0.0600
     50 H           7.9340    1.0392    0.0000 H       1  UNL1        0.0290
     51 H           8.3326    0.3489    0.0000 H       1  UNL1        0.0290
     52 H           6.7586   -2.4274    0.0000 H       1  UNL1        0.0566
     53 H           6.3600   -1.7371    0.0000 H       1  UNL1        0.0566
     54 H           3.0275   -0.5579    0.0000 H       1  UNL1        0.2102
     55 H           8.5203    1.0829    0.0000 H       1  UNL1        0.0424
     56 H           9.3122    1.1730    0.0000 H       1  UNL1        0.0424
     57 H           7.5076    2.2004    0.0000 H       1  UNL1        0.2098
     58 H           2.9904    0.9033    0.0000 H       1  UNL1        0.2098
     59 H           6.2439   -2.2997    0.0000 H       1  UNL1        0.0524
     60 H           6.1197   -3.1677    0.0000 H       1  UNL1        0.0524
     61 H           5.2517   -3.0435    0.0000 H       1  UNL1        0.0524
     62 H          10.1342    0.8256    0.0000 H       1  UNL1        0.0242
     63 H          10.4555    0.0098    0.0000 H       1  UNL1        0.0242
     64 H           9.6396   -0.3114    0.0000 H       1  UNL1        0.0242
     65 H           2.3193    3.3970    0.0000 H       1  UNL1        0.0524
     66 H           2.9893    3.9626    0.0000 H       1  UNL1        0.0524
     67 H           3.5549    3.2926    0.0000 H       1  UNL1        0.0524
     68 H           8.4567   -3.3448    0.0000 H       1  UNL1        0.0523
     69 H           7.8367   -3.9648    0.0000 H       1  UNL1        0.0523
     70 H           7.2167   -3.3448    0.0000 H       1  UNL1        0.0523
@<TRIPOS>BOND
     1    14     1    1
     2     1    54    1
     3    15     2    1
     4     2    28    1
     5    17     3    1
     6     3    57    1
     7    20     4    1
     8     4    58    1
     9    24     5    1
    10     5    30    1
    11     6    26    1
    12     6    31    1
    13     7    11    1
    14     7    21    1
    15     7    27    1
    16     8     9    1
    17     8    10    1
    18     8    11    1
    19     8    17    1
    20     9    15    1
    21     9    16    1
    22     9    32    1
    23    10    13    1
    24    10    18    1
    25    10    33    1
    26    11    12    1
    27    11    34    1
    28    12    14    1
    29    12    15    1
    30    12    35    1
    31    13    14    1
    32    13    20    1
    33    13    36    1
    34    14    22    1
    35    15    37    1
    36    16    21    1
    37    16    23    1
    38    16    26    1
    39    17    25    1
    40    17    38    1
    41    18    19    1
    42    18    39    1
    43    18    40    1
    44    19    20    1
    45    19    24    1
    46    19    41    1
    47    20    42    1
    48    21    43    1
    49    21    44    1
    50    22    24    1
    51    22    45    1
    52    22    46    1
    53    23    25    1
    54    23    47    1
    55    23    48    1
    56    24    49    1
    57    25    50    1
    58    25    51    1
    59    26    52    1
    60    26    53    1
    61    27    29    1
    62    27    55    1
    63    27    56    1
    64    28    59    1
    65    28    60    1
    66    28    61    1
    67    29    62    1
    68    29    63    1
    69    29    64    1
    70    30    65    1
    71    30    66    1
    72    30    67    1
    73    31    68    1
    74    31    69    1
    75    31    70    1
