@<TRIPOS>MOLECULE
IMPHY017306
 31 31 0 0 0
SMALL
GASTEIGER

@<TRIPOS>ATOM
      1 N           5.4641    0.2500    0.0000 N.ar    1  UNL1       -0.2535
      2 N           5.4641    2.2500    0.0000 N.ar    1  UNL1       -0.2566
      3 C           2.8660   -1.2500    0.0000 C.3     1  UNL1       -0.0464
      4 C           3.7320   -0.7500    0.0000 C.3     1  UNL1       -0.0452
      5 C           3.7320    0.2500    0.0000 C.3     1  UNL1       -0.0084
      6 C           2.8660   -2.2500    0.0000 C.3     1  UNL1       -0.0627
      7 C           2.0000   -0.7500    0.0000 C.3     1  UNL1       -0.0627
      8 C           4.5981    0.7500    0.0000 C.ar    1  UNL1        0.0625
      9 C           4.5981    1.7500    0.0000 C.ar    1  UNL1        0.0594
     10 C           6.3301    0.7500    0.0000 C.ar    1  UNL1        0.0566
     11 C           3.7320    2.2500    0.0000 C.3     1  UNL1       -0.0206
     12 C           6.3301    1.7500    0.0000 C.ar    1  UNL1        0.0489
     13 C           7.1962    0.2500    0.0000 C.3     1  UNL1       -0.0209
     14 H           2.8660   -0.6300    0.0000 H       1  UNL1        0.0296
     15 H           3.9441   -1.3326    0.0000 H       1  UNL1        0.0271
     16 H           4.3426   -0.6423    0.0000 H       1  UNL1        0.0271
     17 H           3.5200    0.8326    0.0000 H       1  UNL1        0.0329
     18 H           3.1215    0.1423    0.0000 H       1  UNL1        0.0329
     19 H           2.2460   -2.2500    0.0000 H       1  UNL1        0.0232
     20 H           2.8660   -2.8700    0.0000 H       1  UNL1        0.0232
     21 H           3.4860   -2.2500    0.0000 H       1  UNL1        0.0232
     22 H           2.3100   -0.2131    0.0000 H       1  UNL1        0.0232
     23 H           1.4631   -0.4400    0.0000 H       1  UNL1        0.0232
     24 H           1.6900   -1.2869    0.0000 H       1  UNL1        0.0232
     25 H           4.0420    2.7869    0.0000 H       1  UNL1        0.0293
     26 H           3.1951    2.5600    0.0000 H       1  UNL1        0.0293
     27 H           3.4220    1.7131    0.0000 H       1  UNL1        0.0293
     28 H           6.8671    2.0600    0.0000 H       1  UNL1        0.0848
     29 H           6.8862   -0.2869    0.0000 H       1  UNL1        0.0293
     30 H           7.7331   -0.0600    0.0000 H       1  UNL1        0.0293
     31 H           7.5062    0.7869    0.0000 H       1  UNL1        0.0293
@<TRIPOS>BOND
     1     1     8   ar
     2     1    10   ar
     3     2     9   ar
     4     2    12   ar
     5     3     4    1
     6     3     6    1
     7     3     7    1
     8     3    14    1
     9     4     5    1
    10     4    15    1
    11     4    16    1
    12     5     8    1
    13     5    17    1
    14     5    18    1
    15     6    19    1
    16     6    20    1
    17     6    21    1
    18     7    22    1
    19     7    23    1
    20     7    24    1
    21     8     9   ar
    22     9    11    1
    23    10    12   ar
    24    10    13    1
    25    11    25    1
    26    11    26    1
    27    11    27    1
    28    12    28    1
    29    13    29    1
    30    13    30    1
    31    13    31    1
