@<TRIPOS>MOLECULE
IMPHY001687
 23 24 0 0 0
SMALL
GASTEIGER

@<TRIPOS>ATOM
      1 O           6.0290   -1.0347    0.0000 O.2     1  UNL1       -0.4220
      2 O           2.5369   -1.0000    0.0000 O.3     1  UNL1       -0.4943
      3 O           7.7991   -1.0241    0.0000 O.2     1  UNL1       -0.2452
      4 O           2.5369    2.0000    0.0000 O.2     1  UNL1       -0.2956
      5 C           5.1350    0.5000    0.0000 C.ar    1  UNL1        0.0185
      6 C           5.1350   -0.5000    0.0000 C.ar    1  UNL1        0.1426
      7 C           3.4030    0.5000    0.0000 C.ar    1  UNL1        0.0566
      8 C           4.2690    1.0000    0.0000 C.ar    1  UNL1       -0.0373
      9 C           3.4030   -0.5000    0.0000 C.ar    1  UNL1        0.1338
     10 C           4.2690   -1.0000    0.0000 C.ar    1  UNL1        0.0238
     11 C           6.0290    1.0347    0.0000 C.ar    1  UNL1       -0.0443
     12 C           6.9350    0.5208    0.0000 C.ar    1  UNL1        0.0236
     13 C           6.9350   -0.5208    0.0000 C.ar    1  UNL1        0.3372
     14 C           2.5369    1.0000    0.0000 C.2     1  UNL1        0.1537
     15 C           2.5369   -2.0000    0.0000 C.3     1  UNL1        0.0788
     16 H           4.2690    1.6200    0.0000 H       1  UNL1        0.0633
     17 H           4.2690   -1.6200    0.0000 H       1  UNL1        0.0691
     18 H           6.0218    1.6546    0.0000 H       1  UNL1        0.0627
     19 H           7.4708    0.8329    0.0000 H       1  UNL1        0.0689
     20 H           2.0000    0.6900    0.0000 H       1  UNL1        0.1083
     21 H           1.9169   -2.0000    0.0000 H       1  UNL1        0.0660
     22 H           2.5369   -2.6200    0.0000 H       1  UNL1        0.0660
     23 H           3.1569   -2.0000    0.0000 H       1  UNL1        0.0660
@<TRIPOS>BOND
     1     1     6   ar
     2     1    13   ar
     3     2     9    1
     4     2    15    1
     5     3    13    2
     6     4    14    2
     7     5     6   ar
     8     5     8   ar
     9     5    11   ar
    10     6    10   ar
    11     7     8   ar
    12     7     9   ar
    13     7    14    1
    14     8    16    1
    15     9    10   ar
    16    10    17    1
    17    11    12   ar
    18    11    18    1
    19    12    13   ar
    20    12    19    1
    21    14    20    1
    22    15    21    1
    23    15    22    1
    24    15    23    1
