@<TRIPOS>MOLECULE
IMPHY005229
 48 54 0 0 0
SMALL
GASTEIGER

@<TRIPOS>ATOM
      1 O           6.8753    1.6297    0.0000 O.3     1  UNL1       -0.3735
      2 O           6.8022   -2.0918    0.0000 O.3     1  UNL1       -0.3717
      3 O           3.5351   -2.1297    0.0000 O.2     1  UNL1       -0.2752
      4 N           5.8097    2.0468    0.0000 N.3     1  UNL1       -0.2704
      5 N           4.4011   -0.7055    0.0000 N.am    1  UNL1       -0.2666
      6 C           5.2014    0.6808    0.0000 C.3     1  UNL1        0.0603
      7 C           6.0018    1.1428    0.0000 C.3     1  UNL1        0.1322
      8 C           5.2014   -0.2434    0.0000 C.3     1  UNL1        0.0504
      9 C           6.0018   -0.7055    0.0000 C.3     1  UNL1        0.0124
     10 C           6.8022   -0.2434    0.0000 C.3     1  UNL1       -0.0078
     11 C           6.8022    0.6808    0.0000 C.3     1  UNL1       -0.0022
     12 C           4.5146    1.2992    0.0000 C.3     1  UNL1       -0.0247
     13 C           3.6007    0.6808    0.0000 C.ar    1  UNL1       -0.0139
     14 C           4.8906    2.1434    0.0000 C.3     1  UNL1        0.0028
     15 C           6.0018   -1.6297    0.0000 C.3     1  UNL1        0.0724
     16 C           7.6625   -0.5811    0.0000 C.2     1  UNL1       -0.0537
     17 C           7.6266    1.2455    0.0000 C.3     1  UNL1        0.0229
     18 C           3.6007   -0.2434    0.0000 C.ar    1  UNL1        0.0405
     19 C           5.2014   -2.0918    0.0000 C.3     1  UNL1        0.0511
     20 C           4.4011   -1.6297    0.0000 C.2     1  UNL1        0.2225
     21 C           7.9758   -1.2189    0.0000 C.2     1  UNL1       -0.0579
     22 C           2.8004    1.1428    0.0000 C.ar    1  UNL1       -0.0561
     23 C           7.5239   -2.0815    0.0000 C.3     1  UNL1        0.0665
     24 C           2.8004   -0.7055    0.0000 C.ar    1  UNL1       -0.0400
     25 C           2.0000    0.6808    0.0000 C.ar    1  UNL1       -0.0614
     26 C           2.0000   -0.2434    0.0000 C.ar    1  UNL1       -0.0600
     27 H           5.2040   -1.0934    0.0000 H       1  UNL1        0.0518
     28 H           6.7379   -1.1305    0.0000 H       1  UNL1        0.0350
     29 H           7.5045    0.2354    0.0000 H       1  UNL1        0.0351
     30 H           7.4128    0.5731    0.0000 H       1  UNL1        0.0312
     31 H           7.0142    1.2634    0.0000 H       1  UNL1        0.0312
     32 H           3.9777    1.6092    0.0000 H       1  UNL1        0.0288
     33 H           4.1502    0.7976    0.0000 H       1  UNL1        0.0288
     34 H           5.0194    2.7499    0.0000 H       1  UNL1        0.0428
     35 H           4.3009    2.3350    0.0000 H       1  UNL1        0.0428
     36 H           5.9945   -2.4797    0.0000 H       1  UNL1        0.0604
     37 H           8.2418    1.1680    0.0000 H       1  UNL1        0.0473
     38 H           7.7922    1.8430    0.0000 H       1  UNL1        0.0473
     39 H           4.8029   -2.5667    0.0000 H       1  UNL1        0.0384
     40 H           5.6000   -2.5667    0.0000 H       1  UNL1        0.0384
     41 H           6.8846    2.2497    0.0000 H       1  UNL1        0.2118
     42 H           8.5957   -1.2270    0.0000 H       1  UNL1        0.0595
     43 H           2.8004    1.7628    0.0000 H       1  UNL1        0.0621
     44 H           7.4305   -2.6944    0.0000 H       1  UNL1        0.0604
     45 H           8.1131   -2.2747    0.0000 H       1  UNL1        0.0604
     46 H           2.8004   -1.3255    0.0000 H       1  UNL1        0.0636
     47 H           1.4631    0.9908    0.0000 H       1  UNL1        0.0618
     48 H           1.4631   -0.5534    0.0000 H       1  UNL1        0.0618
@<TRIPOS>BOND
     1     7     1    1
     2     1    41    1
     3     2    15    1
     4     2    23    1
     5     3    20    2
     6     4     7    1
     7     4    14    1
     8     4    17    1
     9     5     8    1
    10     5    18    1
    11     5    20   am
    12     6     7    1
    13     6     8    1
    14     6    12    1
    15     6    13    1
    16     7    11    1
    17     8     9    1
    18     8    27    1
    19     9    10    1
    20     9    15    1
    21     9    28    1
    22    10    11    1
    23    10    16    1
    24    10    29    1
    25    11    30    1
    26    11    31    1
    27    12    14    1
    28    12    32    1
    29    12    33    1
    30    13    18   ar
    31    13    22   ar
    32    14    34    1
    33    14    35    1
    34    15    19    1
    35    15    36    1
    36    16    17    1
    37    16    21    2
    38    17    37    1
    39    17    38    1
    40    18    24   ar
    41    19    20    1
    42    19    39    1
    43    19    40    1
    44    21    23    1
    45    21    42    1
    46    22    25   ar
    47    22    43    1
    48    23    44    1
    49    23    45    1
    50    24    26   ar
    51    24    46    1
    52    25    26   ar
    53    25    47    1
    54    26    48    1
