@<TRIPOS>MOLECULE
IMPHY012660
 28 30 0 0 0
SMALL
GASTEIGER

@<TRIPOS>ATOM
      1 O           8.2103   -0.8047    0.0000 O.2     1  UNL1       -0.4465
      2 O           6.3981    2.0000    0.0000 O.2     1  UNL1       -0.2864
      3 O           2.8680    1.0241    0.0000 O.3     1  UNL1       -0.4951
      4 N           6.3981   -1.0000    0.0000 N.ar    1  UNL1       -0.3138
      5 C           5.5320   -0.5000    0.0000 C.ar    1  UNL1        0.0555
      6 C           5.5320    0.5000    0.0000 C.ar    1  UNL1        0.0494
      7 C           7.2641   -0.5000    0.0000 C.ar    1  UNL1        0.2119
      8 C           7.2641    0.5000    0.0000 C.ar    1  UNL1        0.0853
      9 C           6.3981    1.0000    0.0000 C.ar    1  UNL1        0.2004
     10 C           4.6381   -1.0347    0.0000 C.ar    1  UNL1       -0.0340
     11 C           4.6381    1.0347    0.0000 C.ar    1  UNL1       -0.0071
     12 C           6.3981   -2.0000    0.0000 C.3     1  UNL1        0.0152
     13 C           8.2103    0.8047    0.0000 C.ar    1  UNL1       -0.0108
     14 C           3.7320    0.5208    0.0000 C.ar    1  UNL1        0.1209
     15 C           3.7320   -0.5208    0.0000 C.ar    1  UNL1       -0.0180
     16 C           8.7939   -0.0000    0.0000 C.ar    1  UNL1        0.0951
     17 C           2.0000    0.5275    0.0000 C.3     1  UNL1        0.0788
     18 H           4.6453   -1.6546    0.0000 H       1  UNL1        0.0639
     19 H           4.6453    1.6546    0.0000 H       1  UNL1        0.0662
     20 H           5.7781   -2.0000    0.0000 H       1  UNL1        0.0457
     21 H           6.3981   -2.6200    0.0000 H       1  UNL1        0.0457
     22 H           7.0181   -2.0000    0.0000 H       1  UNL1        0.0457
     23 H           8.4029    1.3940    0.0000 H       1  UNL1        0.0657
     24 H           3.1963   -0.8329    0.0000 H       1  UNL1        0.0655
     25 H           9.4139   -0.0000    0.0000 H       1  UNL1        0.1030
     26 H           1.6921    1.0656    0.0000 H       1  UNL1        0.0660
     27 H           1.4619    0.2196    0.0000 H       1  UNL1        0.0660
     28 H           2.3079   -0.0106    0.0000 H       1  UNL1        0.0660
@<TRIPOS>BOND
     1     1     7   ar
     2     1    16   ar
     3     2     9    2
     4     3    14    1
     5     3    17    1
     6     4     5   ar
     7     4     7   ar
     8     4    12    1
     9     5     6   ar
    10     5    10   ar
    11     6     9   ar
    12     6    11   ar
    13     7     8   ar
    14     8     9   ar
    15     8    13   ar
    16    10    15   ar
    17    10    18    1
    18    11    14   ar
    19    11    19    1
    20    12    20    1
    21    12    21    1
    22    12    22    1
    23    13    16   ar
    24    13    23    1
    25    14    15   ar
    26    15    24    1
    27    16    25    1
    28    17    26    1
    29    17    27    1
    30    17    28    1
