@<TRIPOS>MOLECULE
IMPHY015376
 21 21 0 0 0
SMALL
GASTEIGER

@<TRIPOS>ATOM
      1 O           2.0000   -2.5000    0.0000 O.2     1  UNL1       -0.2957
      2 C           2.8660    1.0000    0.0000 C.ar    1  UNL1       -0.0226
      3 C           2.8660    2.0000    0.0000 C.2     1  UNL1       -0.0504
      4 C           2.0000    0.5000    0.0000 C.ar    1  UNL1       -0.0537
      5 C           3.7320    0.5000    0.0000 C.ar    1  UNL1       -0.0537
      6 C           2.8660   -1.0000    0.0000 C.ar    1  UNL1        0.0142
      7 C           2.0000   -0.5000    0.0000 C.ar    1  UNL1       -0.0510
      8 C           3.7320   -0.5000    0.0000 C.ar    1  UNL1       -0.0510
      9 C           3.7320    2.5000    0.0000 C.3     1  UNL1       -0.0397
     10 C           2.0000    2.5000    0.0000 C.2     1  UNL1       -0.0952
     11 C           2.8660   -2.0000    0.0000 C.2     1  UNL1        0.1502
     12 H           1.4631    0.8100    0.0000 H       1  UNL1        0.0624
     13 H           4.2690    0.8100    0.0000 H       1  UNL1        0.0624
     14 H           1.4631   -0.8100    0.0000 H       1  UNL1        0.0625
     15 H           4.2690   -0.8100    0.0000 H       1  UNL1        0.0625
     16 H           4.0420    1.9631    0.0000 H       1  UNL1        0.0278
     17 H           4.2690    2.8100    0.0000 H       1  UNL1        0.0278
     18 H           3.4220    3.0369    0.0000 H       1  UNL1        0.0278
     19 H           2.0000    3.1200    0.0000 H       1  UNL1        0.0538
     20 H           1.4631    2.1900    0.0000 H       1  UNL1        0.0538
     21 H           3.4030   -2.3100    0.0000 H       1  UNL1        0.1081
@<TRIPOS>BOND
     1     1    11    2
     2     2     3    1
     3     2     4   ar
     4     2     5   ar
     5     3     9    1
     6     3    10    2
     7     4     7   ar
     8     4    12    1
     9     5     8   ar
    10     5    13    1
    11     6     7   ar
    12     6     8   ar
    13     6    11    1
    14     7    14    1
    15     8    15    1
    16     9    16    1
    17     9    17    1
    18     9    18    1
    19    10    19    1
    20    10    20    1
    21    11    21    1
