@<TRIPOS>MOLECULE
IMPHY015520
 47 48 0 0 0
SMALL
GASTEIGER

@<TRIPOS>ATOM
      1 O           3.6155    1.9630    0.0000 O.3     1  UNL1       -0.4585
      2 O           2.2667    0.8764    0.0000 O.2     1  UNL1       -0.2511
      3 C           6.6290    0.0134    0.0000 C.3     1  UNL1       -0.0167
      4 C           7.5736    0.3228    0.0000 C.3     1  UNL1       -0.0371
      5 C           4.8702    0.4056    0.0000 C.3     1  UNL1       -0.0007
      6 C           5.8440    0.6330    0.0000 C.3     1  UNL1       -0.0398
      7 C           6.6339   -0.9866    0.0000 C.2     1  UNL1       -0.0672
      8 C           8.1613   -0.4790    0.0000 C.3     1  UNL1       -0.0462
      9 C           7.5817   -1.2866    0.0000 C.3     1  UNL1       -0.0310
     10 C           4.4408   -0.4975    0.0000 C.3     1  UNL1       -0.0429
     11 C           4.2428    1.1843    0.0000 C.3     1  UNL1        0.1108
     12 C           5.8552   -1.6140    0.0000 C.2     1  UNL1       -0.0731
     13 C           4.8792   -1.3963    0.0000 C.3     1  UNL1       -0.0314
     14 C           7.8796    1.2749    0.0000 C.3     1  UNL1       -0.0619
     15 C           3.4641    0.5569    0.0000 C.3     1  UNL1       -0.0248
     16 C           5.0216    1.8117    0.0000 C.3     1  UNL1       -0.0248
     17 C           6.0826   -2.5878    0.0000 C.3     1  UNL1       -0.0435
     18 C           2.6274    1.8091    0.0000 C.2     1  UNL1        0.3045
     19 C           2.0000    2.5878    0.0000 C.3     1  UNL1        0.0333
     20 H           6.7374    0.6238    0.0000 H       1  UNL1        0.0348
     21 H           8.1857    0.4221    0.0000 H       1  UNL1        0.0304
     22 H           5.1470    1.2093    0.0000 H       1  UNL1        0.0339
     23 H           6.3268    1.0220    0.0000 H       1  UNL1        0.0275
     24 H           5.5722    1.1902    0.0000 H       1  UNL1        0.0275
     25 H           8.6242   -0.8914    0.0000 H       1  UNL1        0.0271
     26 H           8.6201   -0.0619    0.0000 H       1  UNL1        0.0271
     27 H           7.3335   -1.8548    0.0000 H       1  UNL1        0.0310
     28 H           8.1206   -1.5931    0.0000 H       1  UNL1        0.0310
     29 H           3.9542   -0.1134    0.0000 H       1  UNL1        0.0272
     30 H           3.9580   -0.8865    0.0000 H       1  UNL1        0.0272
     31 H           4.2754   -1.5373    0.0000 H       1  UNL1        0.0310
     32 H           4.8823   -2.0163    0.0000 H       1  UNL1        0.0310
     33 H           8.4698    1.0852    0.0000 H       1  UNL1        0.0233
     34 H           8.0692    1.8652    0.0000 H       1  UNL1        0.0233
     35 H           7.2893    1.4646    0.0000 H       1  UNL1        0.0233
     36 H           3.0752    1.0397    0.0000 H       1  UNL1        0.0268
     37 H           2.9813    0.1680    0.0000 H       1  UNL1        0.0268
     38 H           3.8531    0.0741    0.0000 H       1  UNL1        0.0268
     39 H           5.4105    1.3289    0.0000 H       1  UNL1        0.0268
     40 H           5.5043    2.2007    0.0000 H       1  UNL1        0.0268
     41 H           4.6326    2.2945    0.0000 H       1  UNL1        0.0268
     42 H           5.4789   -2.7287    0.0000 H       1  UNL1        0.0274
     43 H           6.2236   -3.1915    0.0000 H       1  UNL1        0.0274
     44 H           6.6864   -2.4468    0.0000 H       1  UNL1        0.0274
     45 H           2.4828    2.9768    0.0000 H       1  UNL1        0.0342
     46 H           1.6110    3.0706    0.0000 H       1  UNL1        0.0342
     47 H           1.5172    2.1988    0.0000 H       1  UNL1        0.0342
@<TRIPOS>BOND
     1     1    11    1
     2     1    18    1
     3     2    18    2
     4     3     4    1
     5     3     6    1
     6     3     7    1
     7     3    20    1
     8     4     8    1
     9     4    14    1
    10     4    21    1
    11     5     6    1
    12     5    10    1
    13     5    11    1
    14     5    22    1
    15     6    23    1
    16     6    24    1
    17     7     9    1
    18     7    12    2
    19     8     9    1
    20     8    25    1
    21     8    26    1
    22     9    27    1
    23     9    28    1
    24    10    13    1
    25    10    29    1
    26    10    30    1
    27    11    15    1
    28    11    16    1
    29    12    13    1
    30    12    17    1
    31    13    31    1
    32    13    32    1
    33    14    33    1
    34    14    34    1
    35    14    35    1
    36    15    36    1
    37    15    37    1
    38    15    38    1
    39    16    39    1
    40    16    40    1
    41    16    41    1
    42    17    42    1
    43    17    43    1
    44    17    44    1
    45    18    19    1
    46    19    45    1
    47    19    46    1
    48    19    47    1
