@<TRIPOS>MOLECULE
IMPHY010136
 81 85 0 0 0
SMALL
GASTEIGER

@<TRIPOS>ATOM
      1 O           6.0123   -0.1149    0.0000 O.3     1  UNL1       -0.3837
      2 O          12.2545    2.5364    0.0000 O.3     1  UNL1       -0.3912
      3 O           7.7806    1.8920    0.0000 O.2     1  UNL1       -0.2923
      4 O           2.6200   -1.9273    0.0000 O.3     1  UNL1       -0.4802
      5 O           2.6400   -0.1954    0.0000 O.2     1  UNL1       -0.2504
      6 C           8.6466   -0.6080    0.0000 C.3     1  UNL1       -0.0126
      7 C           9.5406    0.9267    0.0000 C.3     1  UNL1       -0.0182
      8 C           7.7806   -1.1080    0.0000 C.3     1  UNL1       -0.0019
      9 C           8.6466    0.3920    0.0000 C.3     1  UNL1        0.0333
     10 C          10.4467    0.4128    0.0000 C.3     1  UNL1       -0.0274
     11 C           9.5406   -1.1426    0.0000 C.3     1  UNL1       -0.0459
     12 C           6.0046   -1.1148    0.0000 C.3     1  UNL1        0.0943
     13 C           6.9146   -0.6080    0.0000 C.2     1  UNL1       -0.0282
     14 C           5.9966   -2.1564    0.0000 C.3     1  UNL1        0.0007
     15 C          10.4467   -0.6288    0.0000 C.3     1  UNL1       -0.0486
     16 C          11.3904    0.9481    0.0000 C.3     1  UNL1       -0.0056
     17 C           7.7967   -2.1495    0.0000 C.3     1  UNL1       -0.0427
     18 C           9.5155    2.0114    0.0000 C.3     1  UNL1       -0.0443
     19 C           6.8986   -2.6772    0.0000 C.3     1  UNL1       -0.0439
     20 C           7.7806    0.8920    0.0000 C.2     1  UNL1        0.1603
     21 C           8.9888   -1.5476    0.0000 C.3     1  UNL1       -0.0581
     22 C          11.3904    2.0331    0.0000 C.3     1  UNL1        0.0606
     23 C           8.6707    1.4200    0.0000 C.3     1  UNL1       -0.0586
     24 C           8.4234   -1.8740    0.0000 C.3     1  UNL1       -0.0552
     25 C           5.0778   -0.5507    0.0000 C.3     1  UNL1       -0.0041
     26 C          10.4467    2.5683    0.0000 C.3     1  UNL1       -0.0258
     27 C           6.9146    0.3920    0.0000 C.2     1  UNL1       -0.0164
     28 C           5.0611   -2.7062    0.0000 C.3     1  UNL1       -0.0437
     29 C           4.1299   -1.0787    0.0000 C.3     1  UNL1        0.0677
     30 C           4.1215   -2.1636    0.0000 C.3     1  UNL1       -0.0368
     31 C           5.9889   -3.1564    0.0000 C.3     1  UNL1       -0.0566
     32 C          12.3904    0.9442    0.0000 C.3     1  UNL1       -0.0572
     33 C          11.8871    0.0801    0.0000 C.3     1  UNL1       -0.0572
     34 C           3.6399   -0.2069    0.0000 C.3     1  UNL1       -0.0493
     35 C           3.1299   -1.0671    0.0000 C.2     1  UNL1        0.3108
     36 H           9.3860   -0.0273    0.0000 H       1  UNL1        0.0392
     37 H          11.1811   -0.0150    0.0000 H       1  UNL1        0.0312
     38 H           9.1360   -1.6124    0.0000 H       1  UNL1        0.0271
     39 H           9.9342   -1.6217    0.0000 H       1  UNL1        0.0271
     40 H          10.6557   -1.2125    0.0000 H       1  UNL1        0.0268
     41 H          11.0575   -0.5227    0.0000 H       1  UNL1        0.0268
     42 H           8.0147   -2.7299    0.0000 H       1  UNL1        0.0274
     43 H           8.4058   -2.0340    0.0000 H       1  UNL1        0.0274
     44 H           9.2930    2.5901    0.0000 H       1  UNL1        0.0272
     45 H           8.9073    1.8912    0.0000 H       1  UNL1        0.0272
     46 H           6.5013   -3.1532    0.0000 H       1  UNL1        0.0272
     47 H           7.2996   -3.1501    0.0000 H       1  UNL1        0.0272
     48 H           8.4062   -1.7598    0.0000 H       1  UNL1        0.0236
     49 H           9.2009   -2.1302    0.0000 H       1  UNL1        0.0236
     50 H           9.5714   -1.3355    0.0000 H       1  UNL1        0.0236
     51 H          11.9280    1.7241    0.0000 H       1  UNL1        0.0599
     52 H           8.9766    1.9593    0.0000 H       1  UNL1        0.0235
     53 H           8.1314    1.7258    0.0000 H       1  UNL1        0.0235
     54 H           8.3649    0.8807    0.0000 H       1  UNL1        0.0235
     55 H           7.9485   -2.2726    0.0000 H       1  UNL1        0.0238
     56 H           8.8219   -2.3490    0.0000 H       1  UNL1        0.0238
     57 H           8.8984   -1.4755    0.0000 H       1  UNL1        0.0238
     58 H           5.4860   -0.0841    0.0000 H       1  UNL1        0.0307
     59 H           4.6878   -0.0687    0.0000 H       1  UNL1        0.0307
     60 H          10.8403    3.0473    0.0000 H       1  UNL1        0.0290
     61 H          10.0421    3.0381    0.0000 H       1  UNL1        0.0290
     62 H           6.3777    0.7020    0.0000 H       1  UNL1        0.0653
     63 H           4.6638   -3.1821    0.0000 H       1  UNL1        0.0272
     64 H           5.4621   -3.1790    0.0000 H       1  UNL1        0.0272
     65 H           3.5115   -2.0529    0.0000 H       1  UNL1        0.0276
     66 H           3.9080   -2.7457    0.0000 H       1  UNL1        0.0276
     67 H           5.3689   -3.1516    0.0000 H       1  UNL1        0.0236
     68 H           5.9841   -3.7764    0.0000 H       1  UNL1        0.0236
     69 H           6.6088   -3.1612    0.0000 H       1  UNL1        0.0236
     70 H          11.3490   -0.2278    0.0000 H       1  UNL1        0.0236
     71 H          12.1950   -0.4580    0.0000 H       1  UNL1        0.0236
     72 H          12.3880    0.3242    0.0000 H       1  UNL1        0.0236
     73 H          12.4252    0.3881    0.0000 H       1  UNL1        0.0236
     74 H          13.0104    0.9418    0.0000 H       1  UNL1        0.0236
     75 H          12.3928    1.5642    0.0000 H       1  UNL1        0.0236
     76 H           5.4778    0.1993    0.0000 H       1  UNL1        0.2106
     77 H           4.1804    0.0968    0.0000 H       1  UNL1        0.0240
     78 H           3.3362    0.3335    0.0000 H       1  UNL1        0.0240
     79 H           3.0994   -0.5107    0.0000 H       1  UNL1        0.0240
     80 H          12.2521    3.1564    0.0000 H       1  UNL1        0.2098
     81 H           2.0000   -1.9201    0.0000 H       1  UNL1        0.2951
@<TRIPOS>BOND
     1    12     1    1
     2     1    76    1
     3    22     2    1
     4     2    80    1
     5     3    20    2
     6     4    35    1
     7     4    81    1
     8     5    35    2
     9     6     8    1
    10     6     9    1
    11     6    11    1
    12     6    21    1
    13     7     9    1
    14     7    10    1
    15     7    18    1
    16     7    23    1
    17     8    13    1
    18     8    17    1
    19     8    24    1
    20     9    20    1
    21     9    36    1
    22    10    15    1
    23    10    16    1
    24    10    37    1
    25    11    15    1
    26    11    38    1
    27    11    39    1
    28    12    13    1
    29    12    14    1
    30    12    25    1
    31    13    27    2
    32    14    19    1
    33    14    28    1
    34    14    31    1
    35    15    40    1
    36    15    41    1
    37    16    22    1
    38    16    32    1
    39    16    33    1
    40    17    19    1
    41    17    42    1
    42    17    43    1
    43    18    26    1
    44    18    44    1
    45    18    45    1
    46    19    46    1
    47    19    47    1
    48    20    27    1
    49    21    48    1
    50    21    49    1
    51    21    50    1
    52    22    26    1
    53    22    51    1
    54    23    52    1
    55    23    53    1
    56    23    54    1
    57    24    55    1
    58    24    56    1
    59    24    57    1
    60    25    29    1
    61    25    58    1
    62    25    59    1
    63    26    60    1
    64    26    61    1
    65    27    62    1
    66    28    30    1
    67    28    63    1
    68    28    64    1
    69    29    30    1
    70    29    34    1
    71    29    35    1
    72    30    65    1
    73    30    66    1
    74    31    67    1
    75    31    68    1
    76    31    69    1
    77    32    72    1
    78    32    74    1
    79    32    75    1
    80    33    70    1
    81    33    71    1
    82    33    73    1
    83    34    77    1
    84    34    78    1
    85    34    79    1
