@<TRIPOS>MOLECULE
IMPHY017510
 40 41 0 0 0
SMALL
GASTEIGER

@<TRIPOS>ATOM
      1 O           3.7320   -0.5000    0.0000 O.3     1  UNL1       -0.4644
      2 O           2.0000   -0.5000    0.0000 O.2     1  UNL1       -0.2505
      3 C           2.8660   -2.0000    0.0000 C.3     1  UNL1        0.0565
      4 C           2.0000   -2.5000    0.0000 C.3     1  UNL1       -0.0401
      5 C           3.7320   -2.5000    0.0000 C.3     1  UNL1       -0.0401
      6 C           2.0000   -3.5000    0.0000 C.3     1  UNL1       -0.0523
      7 C           3.7320   -3.5000    0.0000 C.3     1  UNL1       -0.0523
      8 C           2.8660   -4.0000    0.0000 C.3     1  UNL1       -0.0530
      9 C           2.8660   -1.0000    0.0000 C.2     1  UNL1        0.3102
     10 C           3.7320    0.5000    0.0000 C.3     1  UNL1        0.0928
     11 C           4.5981    1.0000    0.0000 C.3     1  UNL1       -0.0146
     12 C           4.5981    2.0000    0.0000 C.3     1  UNL1       -0.0246
     13 C           5.4641    2.5000    0.0000 C.ar    1  UNL1       -0.0472
     14 C           6.3301    2.0000    0.0000 C.ar    1  UNL1       -0.0586
     15 C           5.4641    3.5000    0.0000 C.ar    1  UNL1       -0.0586
     16 C           7.1962    2.5000    0.0000 C.ar    1  UNL1       -0.0615
     17 C           6.3301    4.0000    0.0000 C.ar    1  UNL1       -0.0615
     18 C           7.1962    3.5000    0.0000 C.ar    1  UNL1       -0.0617
     19 H           3.4030   -1.6900    0.0000 H       1  UNL1        0.0413
     20 H           1.7880   -1.9174    0.0000 H       1  UNL1        0.0273
     21 H           1.3894   -2.6077    0.0000 H       1  UNL1        0.0273
     22 H           4.3426   -2.6077    0.0000 H       1  UNL1        0.0273
     23 H           3.9441   -1.9174    0.0000 H       1  UNL1        0.0273
     24 H           1.3894   -3.3923    0.0000 H       1  UNL1        0.0265
     25 H           1.7880   -4.0826    0.0000 H       1  UNL1        0.0265
     26 H           3.9441   -4.0826    0.0000 H       1  UNL1        0.0265
     27 H           4.3426   -3.3923    0.0000 H       1  UNL1        0.0265
     28 H           2.4675   -4.4750    0.0000 H       1  UNL1        0.0265
     29 H           3.2646   -4.4750    0.0000 H       1  UNL1        0.0265
     30 H           3.5200    1.0826    0.0000 H       1  UNL1        0.0697
     31 H           3.1215    0.3923    0.0000 H       1  UNL1        0.0697
     32 H           4.8101    0.4174    0.0000 H       1  UNL1        0.0301
     33 H           5.2087    1.1077    0.0000 H       1  UNL1        0.0301
     34 H           4.3860    2.5826    0.0000 H       1  UNL1        0.0314
     35 H           3.9875    1.8923    0.0000 H       1  UNL1        0.0314
     36 H           6.3301    1.3800    0.0000 H       1  UNL1        0.0620
     37 H           4.9272    3.8100    0.0000 H       1  UNL1        0.0620
     38 H           7.7331    2.1900    0.0000 H       1  UNL1        0.0618
     39 H           6.3301    4.6200    0.0000 H       1  UNL1        0.0618
     40 H           7.7331    3.8100    0.0000 H       1  UNL1        0.0618
@<TRIPOS>BOND
     1     1     9    1
     2     1    10    1
     3     2     9    2
     4     3     4    1
     5     3     5    1
     6     3     9    1
     7     3    19    1
     8     4     6    1
     9     4    20    1
    10     4    21    1
    11     5     7    1
    12     5    22    1
    13     5    23    1
    14     6     8    1
    15     6    24    1
    16     6    25    1
    17     7     8    1
    18     7    26    1
    19     7    27    1
    20     8    28    1
    21     8    29    1
    22    10    11    1
    23    10    30    1
    24    10    31    1
    25    11    12    1
    26    11    32    1
    27    11    33    1
    28    12    13    1
    29    12    34    1
    30    12    35    1
    31    13    14   ar
    32    13    15   ar
    33    14    16   ar
    34    14    36    1
    35    15    17   ar
    36    15    37    1
    37    16    18   ar
    38    16    38    1
    39    17    18   ar
    40    17    39    1
    41    18    40    1
