@<TRIPOS>MOLECULE
IMPHY003111
 50 53 0 0 0
SMALL
GASTEIGER

@<TRIPOS>ATOM
      1 O           5.9507   -3.4819    0.0000 O.3     1  UNL1       -0.3640
      2 O           3.7230   -1.6349    0.0000 O.3     1  UNL1       -0.4567
      3 O           4.5447    1.5305    0.0000 O.3     1  UNL1       -0.3871
      4 O           6.4125    1.5305    0.0000 O.3     1  UNL1       -0.4510
      5 O           2.0000   -1.2027    0.0000 O.2     1  UNL1       -0.2453
      6 O           7.9730    0.7790    0.0000 O.2     1  UNL1       -0.2453
      7 C           5.6146   -2.5459    0.0000 C.3     1  UNL1        0.1033
      8 C           5.4786   -1.5611    0.0000 C.3     1  UNL1        0.0496
      9 C           6.5929   -2.7225    0.0000 C.3     1  UNL1        0.0925
     10 C           7.0647   -1.8475    0.0000 C.3     1  UNL1       -0.0018
     11 C           6.3796   -1.1272    0.0000 C.2     1  UNL1       -0.0551
     12 C           4.5777   -1.1272    0.0000 C.3     1  UNL1        0.1220
     13 C           4.3551   -0.1523    0.0000 C.3     1  UNL1        0.0578
     14 C           4.6305   -2.3682    0.0000 C.3     1  UNL1       -0.0327
     15 C           6.6021   -0.1523    0.0000 C.2     1  UNL1       -0.0303
     16 C           4.9786    0.6295    0.0000 C.3     1  UNL1        0.1063
     17 C           5.9786    0.6295    0.0000 C.3     1  UNL1        0.1508
     18 C           3.3648   -0.0658    0.0000 C.2     1  UNL1        0.0387
     19 C           2.9749   -0.9802    0.0000 C.2     1  UNL1        0.3354
     20 C           7.5770    0.0702    0.0000 C.3     1  UNL1       -0.0400
     21 C           2.8504    0.7918    0.0000 C.2     1  UNL1       -0.0882
     22 C           7.4097    1.6052    0.0000 C.2     1  UNL1        0.3352
     23 C           7.8436    2.5062    0.0000 C.2     1  UNL1        0.0294
     24 C           7.2803    3.3324    0.0000 C.3     1  UNL1       -0.0333
     25 C           8.8408    2.5809    0.0000 C.2     1  UNL1       -0.0774
     26 C           9.2747    3.4819    0.0000 C.3     1  UNL1       -0.0461
     27 H           4.7916   -2.0616    0.0000 H       1  UNL1        0.0411
     28 H           7.2952   -3.2012    0.0000 H       1  UNL1        0.0628
     29 H           7.5765   -2.1975    0.0000 H       1  UNL1        0.0336
     30 H           7.4666   -1.3754    0.0000 H       1  UNL1        0.0336
     31 H           4.6147   -1.9764    0.0000 H       1  UNL1        0.0748
     32 H           4.0200    0.6288    0.0000 H       1  UNL1        0.0414
     33 H           4.7407   -1.7580    0.0000 H       1  UNL1        0.0258
     34 H           4.0204   -2.2580    0.0000 H       1  UNL1        0.0258
     35 H           4.5204   -2.9783    0.0000 H       1  UNL1        0.0258
     36 H           5.4309    1.3492    0.0000 H       1  UNL1        0.0641
     37 H           6.8233    0.7247    0.0000 H       1  UNL1        0.0809
     38 H           7.7150   -0.5342    0.0000 H       1  UNL1        0.0276
     39 H           8.1815    0.2082    0.0000 H       1  UNL1        0.0276
     40 H           7.4391    0.6747    0.0000 H       1  UNL1        0.0276
     41 H           4.8940    2.0428    0.0000 H       1  UNL1        0.2100
     42 H           3.1514    1.3338    0.0000 H       1  UNL1        0.0540
     43 H           2.2305    0.7814    0.0000 H       1  UNL1        0.0540
     44 H           7.7926    3.6817    0.0000 H       1  UNL1        0.0280
     45 H           6.9310    3.8447    0.0000 H       1  UNL1        0.0280
     46 H           6.7680    2.9832    0.0000 H       1  UNL1        0.0280
     47 H           9.1901    2.0686    0.0000 H       1  UNL1        0.0574
     48 H           9.8333    3.2129    0.0000 H       1  UNL1        0.0272
     49 H           9.5437    4.0405    0.0000 H       1  UNL1        0.0272
     50 H           8.7161    3.7509    0.0000 H       1  UNL1        0.0272
@<TRIPOS>BOND
     1     1     7    1
     2     1     9    1
     3     2    12    1
     4     2    19    1
     5     3    16    1
     6     3    41    1
     7     4    17    1
     8     4    22    1
     9     5    19    2
    10     6    22    2
    11     7     8    1
    12     7     9    1
    13     7    14    1
    14     8    11    1
    15     8    12    1
    16     8    27    1
    17     9    10    1
    18     9    28    1
    19    10    11    1
    20    10    29    1
    21    10    30    1
    22    11    15    2
    23    12    13    1
    24    12    31    1
    25    13    16    1
    26    13    18    1
    27    13    32    1
    28    14    33    1
    29    14    34    1
    30    14    35    1
    31    15    17    1
    32    15    20    1
    33    16    17    1
    34    16    36    1
    35    17    37    1
    36    18    19    1
    37    18    21    2
    38    20    38    1
    39    20    39    1
    40    20    40    1
    41    21    42    1
    42    21    43    1
    43    22    23    1
    44    23    24    1
    45    23    25    2
    46    24    44    1
    47    24    45    1
    48    24    46    1
    49    25    26    1
    50    25    47    1
    51    26    48    1
    52    26    49    1
    53    26    50    1
