@<TRIPOS>MOLECULE
IMPHY014200
 28 29 0 0 0
SMALL
GASTEIGER

@<TRIPOS>ATOM
      1 O           2.8660    1.8988    0.0000 O.2     1  UNL1       -0.2723
      2 N           4.5981    1.8988    0.0000 N.ar    1  UNL1       -0.2943
      3 C           2.8660   -0.1012    0.0000 C.3     1  UNL1       -0.0192
      4 C           3.7320    0.3988    0.0000 C.3     1  UNL1        0.0309
      5 C           2.8660   -1.1012    0.0000 C.ar    1  UNL1       -0.0469
      6 C           3.7320    1.3988    0.0000 C.2     1  UNL1        0.2316
      7 C           2.0000   -1.6012    0.0000 C.ar    1  UNL1       -0.0586
      8 C           3.7320   -1.6012    0.0000 C.ar    1  UNL1       -0.0586
      9 C           5.5116    1.4921    0.0000 C.ar    1  UNL1        0.0124
     10 C           4.7026    2.8933    0.0000 C.ar    1  UNL1        0.0124
     11 C           2.0000   -2.6012    0.0000 C.ar    1  UNL1       -0.0615
     12 C           3.7320   -2.6012    0.0000 C.ar    1  UNL1       -0.0615
     13 C           6.1808    2.2352    0.0000 C.ar    1  UNL1       -0.0438
     14 C           5.6808    3.1012    0.0000 C.ar    1  UNL1       -0.0438
     15 C           2.8660   -3.1012    0.0000 C.ar    1  UNL1       -0.0617
     16 H           2.6540    0.4814    0.0000 H       1  UNL1        0.0318
     17 H           2.2554   -0.2089    0.0000 H       1  UNL1        0.0318
     18 H           3.9441   -0.1838    0.0000 H       1  UNL1        0.0364
     19 H           4.3426    0.5064    0.0000 H       1  UNL1        0.0364
     20 H           1.4631   -1.2912    0.0000 H       1  UNL1        0.0620
     21 H           4.2690   -1.2912    0.0000 H       1  UNL1        0.0620
     22 H           5.6405    0.8856    0.0000 H       1  UNL1        0.0813
     23 H           4.2419    3.3082    0.0000 H       1  UNL1        0.0813
     24 H           1.4631   -2.9112    0.0000 H       1  UNL1        0.0618
     25 H           4.2690   -2.9112    0.0000 H       1  UNL1        0.0618
     26 H           6.7974    2.1704    0.0000 H       1  UNL1        0.0633
     27 H           5.9329    3.6676    0.0000 H       1  UNL1        0.0633
     28 H           2.8660   -3.7212    0.0000 H       1  UNL1        0.0618
@<TRIPOS>BOND
     1     1     6    2
     2     2     6   am
     3     2     9   ar
     4     2    10   ar
     5     3     4    1
     6     3     5    1
     7     3    16    1
     8     3    17    1
     9     4     6    1
    10     4    18    1
    11     4    19    1
    12     5     7   ar
    13     5     8   ar
    14     7    11   ar
    15     7    20    1
    16     8    12   ar
    17     8    21    1
    18     9    13   ar
    19     9    22    1
    20    10    14   ar
    21    10    23    1
    22    11    15   ar
    23    11    24    1
    24    12    15   ar
    25    12    25    1
    26    13    14   ar
    27    13    26    1
    28    14    27    1
    29    15    28    1
