@<TRIPOS>MOLECULE
IMPHY015816
 21 20 0 0 0
SMALL
GASTEIGER

@<TRIPOS>ATOM
      1 O           2.6340   -0.8170    0.0000 O.3     1  UNL1       -0.3777
      2 O           5.2320   -0.3170    0.0000 O.3     1  UNL1       -0.4659
      3 O           4.3660    1.1830    0.0000 O.2     1  UNL1       -0.2476
      4 C           3.5000   -0.3170    0.0000 C.3     1  UNL1        0.1589
      5 C           3.0000    0.5490    0.0000 C.3     1  UNL1       -0.0166
      6 C           4.0000   -1.1830    0.0000 C.3     1  UNL1       -0.0256
      7 C           4.3660    0.1830    0.0000 C.2     1  UNL1        0.3386
      8 C           2.0000    0.5490    0.0000 C.3     1  UNL1       -0.0622
      9 C           6.0981    0.1830    0.0000 C.3     1  UNL1        0.0818
     10 H           3.5826    0.7611    0.0000 H       1  UNL1        0.0296
     11 H           2.8923    1.1596    0.0000 H       1  UNL1        0.0296
     12 H           3.4631   -1.4930    0.0000 H       1  UNL1        0.0263
     13 H           4.3100   -1.7200    0.0000 H       1  UNL1        0.0263
     14 H           4.5369   -0.8730    0.0000 H       1  UNL1        0.0263
     15 H           2.0000    1.1690    0.0000 H       1  UNL1        0.0231
     16 H           1.3800    0.5490    0.0000 H       1  UNL1        0.0231
     17 H           2.0000   -0.0710    0.0000 H       1  UNL1        0.0231
     18 H           2.0970   -0.5070    0.0000 H       1  UNL1        0.2109
     19 H           6.4081   -0.3539    0.0000 H       1  UNL1        0.0661
     20 H           6.6350    0.4930    0.0000 H       1  UNL1        0.0661
     21 H           5.7881    0.7199    0.0000 H       1  UNL1        0.0661
@<TRIPOS>BOND
     1     1     4    1
     2     1    18    1
     3     2     7    1
     4     2     9    1
     5     3     7    2
     6     4     5    1
     7     4     6    1
     8     4     7    1
     9     5     8    1
    10     5    10    1
    11     5    11    1
    12     6    12    1
    13     6    13    1
    14     6    14    1
    15     8    15    1
    16     8    16    1
    17     8    17    1
    18     9    19    1
    19     9    20    1
    20     9    21    1
