@<TRIPOS>MOLECULE
IMPHY008352
 65 66 0 0 0
SMALL
GASTEIGER

@<TRIPOS>ATOM
      1 O           6.3301   -1.2811    0.0000 O.2     1  UNL1       -0.5097
      2 O           2.8660   -1.2811    0.0000 O.2     1  UNL1       -0.2908
      3 O           4.5981   -4.2811    0.0000 O.2     1  UNL1       -0.5056
      4 O           6.0981    1.3170    0.0000 O.3     1  UNL1       -0.5055
      5 O           3.0981   -0.4151    0.0000 O.3     1  UNL1       -0.5060
      6 O           3.0981    3.0490    0.0000 O.3     1  UNL1       -0.4939
      7 O           2.0000   -2.7811    0.0000 O.2     1  UNL1       -0.2915
      8 O           6.0981    3.0490    0.0000 O.2     1  UNL1       -0.2915
      9 C           4.5981   -1.2811    0.0000 C.3     1  UNL1        0.0922
     10 C           5.0981   -0.4151    0.0000 C.3     1  UNL1       -0.0013
     11 C           5.4641   -1.7811    0.0000 C.2     1  UNL1        0.1141
     12 C           3.7320   -1.7811    0.0000 C.2     1  UNL1        0.1834
     13 C           4.0981   -0.4151    0.0000 C.3     1  UNL1       -0.0452
     14 C           4.5981    0.4510    0.0000 C.ar    1  UNL1        0.0379
     15 C           3.7320   -2.7811    0.0000 C.2     1  UNL1        0.1026
     16 C           5.4641   -2.7811    0.0000 C.2     1  UNL1        0.0299
     17 C           4.5981   -3.2811    0.0000 C.2     1  UNL1        0.1368
     18 C           5.0981    1.3170    0.0000 C.ar    1  UNL1        0.1375
     19 C           3.5981    0.4510    0.0000 C.ar    1  UNL1        0.1299
     20 C           2.8660   -3.2811    0.0000 C.2     1  UNL1        0.1726
     21 C           4.5981    2.1830    0.0000 C.ar    1  UNL1        0.1013
     22 C           3.0981    1.3170    0.0000 C.ar    1  UNL1        0.0337
     23 C           6.3301   -3.2811    0.0000 C.3     1  UNL1       -0.0330
     24 C           2.8660   -4.2811    0.0000 C.3     1  UNL1        0.0167
     25 C           3.5981    2.1830    0.0000 C.ar    1  UNL1        0.1405
     26 C           5.0981    3.0490    0.0000 C.2     1  UNL1        0.1727
     27 C           4.5981    3.9151    0.0000 C.3     1  UNL1        0.0167
     28 C           2.0981    1.3170    0.0000 C.3     1  UNL1       -0.0327
     29 C           2.0000   -4.7811    0.0000 C.3     1  UNL1       -0.0556
     30 C           3.7320   -4.7811    0.0000 C.3     1  UNL1       -0.0556
     31 C           5.0981    4.7811    0.0000 C.3     1  UNL1       -0.0556
     32 C           3.5981    3.9151    0.0000 C.3     1  UNL1       -0.0556
     33 C           2.0981    3.0490    0.0000 C.3     1  UNL1        0.0788
     34 H           5.5730   -0.8136    0.0000 H       1  UNL1        0.0329
     35 H           5.5730   -0.0165    0.0000 H       1  UNL1        0.0329
     36 H           4.6350   -0.1051    0.0000 H       1  UNL1        0.0243
     37 H           3.7881    0.1219    0.0000 H       1  UNL1        0.0243
     38 H           3.5611   -0.7251    0.0000 H       1  UNL1        0.0243
     39 H           6.0201   -3.8180    0.0000 H       1  UNL1        0.0280
     40 H           6.8671   -3.5911    0.0000 H       1  UNL1        0.0280
     41 H           6.6401   -2.7442    0.0000 H       1  UNL1        0.0280
     42 H           2.8660   -4.9011    0.0000 H       1  UNL1        0.0375
     43 H           6.8671   -1.5911    0.0000 H       1  UNL1        0.2917
     44 H           4.2881    4.4520    0.0000 H       1  UNL1        0.0375
     45 H           2.0981    1.9370    0.0000 H       1  UNL1        0.0280
     46 H           1.4781    1.3170    0.0000 H       1  UNL1        0.0280
     47 H           2.0981    0.6970    0.0000 H       1  UNL1        0.0280
     48 H           1.6900   -4.2442    0.0000 H       1  UNL1        0.0236
     49 H           1.4631   -5.0911    0.0000 H       1  UNL1        0.0236
     50 H           2.3100   -5.3180    0.0000 H       1  UNL1        0.0236
     51 H           3.4220   -5.3180    0.0000 H       1  UNL1        0.0236
     52 H           4.2690   -5.0911    0.0000 H       1  UNL1        0.0236
     53 H           4.0420   -4.2442    0.0000 H       1  UNL1        0.0236
     54 H           5.1350   -4.5911    0.0000 H       1  UNL1        0.2922
     55 H           6.4081    1.8539    0.0000 H       1  UNL1        0.2922
     56 H           2.4781   -0.4151    0.0000 H       1  UNL1        0.2922
     57 H           5.6350    4.4711    0.0000 H       1  UNL1        0.0236
     58 H           5.4081    5.3180    0.0000 H       1  UNL1        0.0236
     59 H           4.5611    5.0911    0.0000 H       1  UNL1        0.0236
     60 H           3.5981    4.5351    0.0000 H       1  UNL1        0.0236
     61 H           2.9781    3.9151    0.0000 H       1  UNL1        0.0236
     62 H           3.5981    3.2951    0.0000 H       1  UNL1        0.0236
     63 H           2.0981    3.6690    0.0000 H       1  UNL1        0.0660
     64 H           1.4781    3.0490    0.0000 H       1  UNL1        0.0660
     65 H           2.0981    2.4290    0.0000 H       1  UNL1        0.0660
@<TRIPOS>BOND
     1     1    11    1
     2     1    43    1
     3     2    12    2
     4     3    17    1
     5     3    54    1
     6     4    18    1
     7     4    55    1
     8     5    19    1
     9     5    56    1
    10     6    25    1
    11     6    33    1
    12     7    20    2
    13     8    26    2
    14     9    10    1
    15     9    11    1
    16     9    12    1
    17     9    13    1
    18    10    14    1
    19    10    34    1
    20    10    35    1
    21    11    16    2
    22    12    15    1
    23    13    36    1
    24    13    37    1
    25    13    38    1
    26    14    18   ar
    27    14    19   ar
    28    15    17    2
    29    15    20    1
    30    16    17    1
    31    16    23    1
    32    18    21   ar
    33    19    22   ar
    34    20    24    1
    35    21    25   ar
    36    21    26    1
    37    22    25   ar
    38    22    28    1
    39    23    39    1
    40    23    40    1
    41    23    41    1
    42    24    29    1
    43    24    30    1
    44    24    42    1
    45    26    27    1
    46    27    31    1
    47    27    32    1
    48    27    44    1
    49    28    45    1
    50    28    46    1
    51    28    47    1
    52    29    48    1
    53    29    49    1
    54    29    50    1
    55    30    51    1
    56    30    52    1
    57    30    53    1
    58    31    57    1
    59    31    58    1
    60    31    59    1
    61    32    60    1
    62    32    61    1
    63    32    62    1
    64    33    63    1
    65    33    64    1
    66    33    65    1
