@<TRIPOS>MOLECULE
IMPHY002235
 55 60 0 0 0
SMALL
GASTEIGER

@<TRIPOS>ATOM
      1 O           4.3431    2.3877    0.0000 O.3     1  UNL1       -0.3370
      2 O           3.6523    1.2320    0.0000 O.3     1  UNL1       -0.4349
      3 O           3.1072   -0.2251    0.0000 O.2     1  UNL1       -0.2755
      4 O           2.0000    1.7515    0.0000 O.2     1  UNL1       -0.2511
      5 N           8.2429   -0.1244    0.0000 N.3     1  UNL1       -0.2946
      6 N           4.8020   -0.5823    0.0000 N.am    1  UNL1       -0.2669
      7 C           6.4050   -0.4152    0.0000 C.3     1  UNL1        0.0336
      8 C           7.2710    0.0848    0.0000 C.3     1  UNL1        0.0227
      9 C           5.5390    0.0848    0.0000 C.3     1  UNL1        0.0512
     10 C           5.5390    1.0848    0.0000 C.3     1  UNL1        0.0481
     11 C           6.4050    1.5848    0.0000 C.3     1  UNL1       -0.0069
     12 C           7.2710    1.0848    0.0000 C.3     1  UNL1       -0.0294
     13 C           7.0721   -1.1522    0.0000 C.3     1  UNL1       -0.0273
     14 C           8.1629   -0.9301    0.0000 C.3     1  UNL1        0.0004
     15 C           6.1958   -1.3870    0.0000 C.ar    1  UNL1       -0.0165
     16 C           6.5447    2.5556    0.0000 C.2     1  UNL1       -0.0537
     17 C           8.1674    1.7058    0.0000 C.3     1  UNL1        0.0207
     18 C           5.2071   -1.4900    0.0000 C.ar    1  UNL1        0.0404
     19 C           4.6284    1.4493    0.0000 C.3     1  UNL1        0.2100
     20 C           6.8166   -2.2158    0.0000 C.ar    1  UNL1       -0.0562
     21 C           5.8747    3.2719    0.0000 C.2     1  UNL1       -0.0578
     22 C           3.8515   -0.8929    0.0000 C.2     1  UNL1        0.2170
     23 C           4.7706   -2.4290    0.0000 C.ar    1  UNL1       -0.0400
     24 C           4.8967    3.1973    0.0000 C.3     1  UNL1        0.0702
     25 C           6.4019   -3.1646    0.0000 C.ar    1  UNL1       -0.0614
     26 C           5.3720   -3.2719    0.0000 C.ar    1  UNL1       -0.0600
     27 C           3.6452   -1.8714    0.0000 C.3     1  UNL1        0.0127
     28 C           2.9761    1.9688    0.0000 C.2     1  UNL1        0.3061
     29 C           3.2760    2.9227    0.0000 C.3     1  UNL1        0.0333
     30 H           8.0072    0.5098    0.0000 H       1  UNL1        0.0472
     31 H           4.6890    0.0848    0.0000 H       1  UNL1        0.0519
     32 H           4.8029    0.6598    0.0000 H       1  UNL1        0.0386
     33 H           7.1411    2.0098    0.0000 H       1  UNL1        0.0352
     34 H           7.8816    0.9772    0.0000 H       1  UNL1        0.0286
     35 H           7.4831    1.6674    0.0000 H       1  UNL1        0.0286
     36 H           6.5460   -1.4802    0.0000 H       1  UNL1        0.0287
     37 H           7.3016   -1.7282    0.0000 H       1  UNL1        0.0287
     38 H           8.2254   -1.5469    0.0000 H       1  UNL1        0.0427
     39 H           8.7829   -0.9295    0.0000 H       1  UNL1        0.0427
     40 H           8.7819    1.6234    0.0000 H       1  UNL1        0.0473
     41 H           8.3553    2.2967    0.0000 H       1  UNL1        0.0473
     42 H           4.5784    0.8313    0.0000 H       1  UNL1        0.1060
     43 H           7.4324   -2.1444    0.0000 H       1  UNL1        0.0621
     44 H           6.0996    3.8496    0.0000 H       1  UNL1        0.0595
     45 H           4.1532   -2.4861    0.0000 H       1  UNL1        0.0636
     46 H           4.9888    3.8104    0.0000 H       1  UNL1        0.0605
     47 H           4.3197    3.4241    0.0000 H       1  UNL1        0.0605
     48 H           6.7678   -3.6650    0.0000 H       1  UNL1        0.0618
     49 H           5.1172   -3.8371    0.0000 H       1  UNL1        0.0618
     50 H           3.0385   -1.7435    0.0000 H       1  UNL1        0.0323
     51 H           3.5173   -2.4780    0.0000 H       1  UNL1        0.0323
     52 H           4.2519   -1.9993    0.0000 H       1  UNL1        0.0323
     53 H           3.8675    2.7368    0.0000 H       1  UNL1        0.0342
     54 H           3.4619    3.5142    0.0000 H       1  UNL1        0.0342
     55 H           2.6845    3.1086    0.0000 H       1  UNL1        0.0342
@<TRIPOS>BOND
     1     1    19    1
     2     1    24    1
     3    19     2    1
     4     2    28    1
     5     3    22    2
     6     4    28    2
     7     5     8    1
     8     5    14    1
     9     5    17    1
    10     6     9    1
    11     6    18    1
    12     6    22   am
    13     7     8    1
    14     7     9    1
    15     7    13    1
    16     7    15    1
    17     8    12    1
    18     8    30    1
    19     9    10    1
    20     9    31    1
    21    10    11    1
    22    10    19    1
    23    10    32    1
    24    11    12    1
    25    11    16    1
    26    11    33    1
    27    12    34    1
    28    12    35    1
    29    13    14    1
    30    13    36    1
    31    13    37    1
    32    14    38    1
    33    14    39    1
    34    15    18   ar
    35    15    20   ar
    36    16    17    1
    37    16    21    2
    38    17    40    1
    39    17    41    1
    40    18    23   ar
    41    19    42    1
    42    20    25   ar
    43    20    43    1
    44    21    24    1
    45    21    44    1
    46    22    27    1
    47    23    26   ar
    48    23    45    1
    49    24    46    1
    50    24    47    1
    51    25    26   ar
    52    25    48    1
    53    26    49    1
    54    27    50    1
    55    27    51    1
    56    27    52    1
    57    28    29    1
    58    29    53    1
    59    29    54    1
    60    29    55    1
