@<TRIPOS>MOLECULE
IMPHY015032
 42 44 0 0 0
SMALL
GASTEIGER

@<TRIPOS>ATOM
      1 O           3.8884   -1.4897    0.0000 O.3     1  UNL1       -0.3883
      2 C           4.2128    0.4566    0.0000 C.3     1  UNL1        0.0084
      3 C           3.4038    1.0444    0.0000 C.3     1  UNL1       -0.0271
      4 C           5.0218    1.0444    0.0000 C.3     1  UNL1       -0.0235
      5 C           2.8078    0.2311    0.0000 C.3     1  UNL1       -0.0308
      6 C           3.6235   -0.3616    0.0000 C.3     1  UNL1       -0.0385
      7 C           4.3057   -0.5809    0.0000 C.3     1  UNL1        0.0697
      8 C           3.7128    1.9954    0.0000 C.3     1  UNL1       -0.0486
      9 C           4.7128    1.9954    0.0000 C.3     1  UNL1       -0.0467
     10 C           5.9798    0.6354    0.0000 C.3     1  UNL1       -0.0469
     11 C           5.2540   -1.0119    0.0000 C.3     1  UNL1       -0.0237
     12 C           5.8309    1.6322    0.0000 C.3     1  UNL1       -0.0590
     13 C           6.0967   -0.3996    0.0000 C.3     1  UNL1       -0.0499
     14 C           2.0000    0.8205    0.0000 C.3     1  UNL1       -0.0595
     15 C           2.2184   -0.5767    0.0000 C.3     1  UNL1       -0.0595
     16 C           3.4019   -1.0088    0.0000 C.3     1  UNL1       -0.0355
     17 H           2.6472    1.4318    0.0000 H       1  UNL1        0.0312
     18 H           3.2598   -0.8636    0.0000 H       1  UNL1        0.0277
     19 H           4.1261   -0.7246    0.0000 H       1  UNL1        0.0277
     20 H           3.7776    2.6120    0.0000 H       1  UNL1        0.0268
     21 H           3.1064    2.1243    0.0000 H       1  UNL1        0.0268
     22 H           5.3193    2.1243    0.0000 H       1  UNL1        0.0271
     23 H           4.6480    2.6120    0.0000 H       1  UNL1        0.0271
     24 H           6.5987    0.5985    0.0000 H       1  UNL1        0.0271
     25 H           6.1221    1.2389    0.0000 H       1  UNL1        0.0271
     26 H           4.9047   -1.5241    0.0000 H       1  UNL1        0.0293
     27 H           5.6989   -1.4437    0.0000 H       1  UNL1        0.0293
     28 H           6.1953    1.1306    0.0000 H       1  UNL1        0.0235
     29 H           6.3324    1.9966    0.0000 H       1  UNL1        0.0235
     30 H           5.4664    2.1338    0.0000 H       1  UNL1        0.0235
     31 H           6.3699   -0.9562    0.0000 H       1  UNL1        0.0266
     32 H           6.6918   -0.2257    0.0000 H       1  UNL1        0.0266
     33 H           2.3655    1.3214    0.0000 H       1  UNL1        0.0235
     34 H           1.4992    1.1860    0.0000 H       1  UNL1        0.0235
     35 H           1.6345    0.3197    0.0000 H       1  UNL1        0.0235
     36 H           1.7175   -0.2112    0.0000 H       1  UNL1        0.0235
     37 H           1.8529   -1.0776    0.0000 H       1  UNL1        0.0235
     38 H           2.7192   -0.9422    0.0000 H       1  UNL1        0.0235
     39 H           3.1366   -0.4484    0.0000 H       1  UNL1        0.0257
     40 H           2.8415   -1.2740    0.0000 H       1  UNL1        0.0257
     41 H           3.6672   -1.5691    0.0000 H       1  UNL1        0.0257
     42 H           4.2470   -1.9954    0.0000 H       1  UNL1        0.2102
@<TRIPOS>BOND
     1     7     1    1
     2     1    42    1
     3     2     3    1
     4     2     4    1
     5     2     6    1
     6     2     7    1
     7     3     5    1
     8     3     8    1
     9     3    17    1
    10     4     9    1
    11     4    10    1
    12     4    12    1
    13     5     6    1
    14     5    14    1
    15     5    15    1
    16     6    18    1
    17     6    19    1
    18     7    11    1
    19     7    16    1
    20     8     9    1
    21     8    20    1
    22     8    21    1
    23     9    22    1
    24     9    23    1
    25    10    13    1
    26    10    24    1
    27    10    25    1
    28    11    13    1
    29    11    26    1
    30    11    27    1
    31    12    28    1
    32    12    29    1
    33    12    30    1
    34    13    31    1
    35    13    32    1
    36    14    33    1
    37    14    34    1
    38    14    35    1
    39    15    36    1
    40    15    37    1
    41    15    38    1
    42    16    39    1
    43    16    40    1
    44    16    41    1
