@<TRIPOS>MOLECULE
IMPHY012431
 74 81 0 0 0
SMALL
GASTEIGER

@<TRIPOS>ATOM
      1 O           5.3407    1.9144    0.0000 O.3     1  UNL1       -0.3578
      2 O           9.3859    0.6521    0.0000 O.3     1  UNL1       -0.3329
      3 O           2.9269    0.3544    0.0000 O.3     1  UNL1       -0.3730
      4 O           6.5338   -1.8065    0.0000 O.3     1  UNL1       -0.3644
      5 O           4.7760    1.7084    0.0000 O.3     1  UNL1       -0.3886
      6 O           8.1900    2.8443    0.0000 O.3     1  UNL1       -0.3778
      7 O           5.6638   -2.8230    0.0000 O.3     1  UNL1       -0.3911
      8 O          10.5766    2.1292    0.0000 O.2     1  UNL1       -0.4680
      9 O           2.1240   -2.8367    0.0000 O.3     1  UNL1       -0.3911
     10 O           7.9387   -2.1164    0.0000 O.3     1  UNL1       -0.4661
     11 O           8.5828   -1.3515    0.0000 O.2     1  UNL1       -0.2479
     12 C           5.9840    1.1481    0.0000 C.3     1  UNL1        0.1333
     13 C           5.6420    0.2084    0.0000 C.3     1  UNL1        0.0368
     14 C           6.3260    2.0878    0.0000 C.3     1  UNL1        0.1055
     15 C           5.6420   -0.7916    0.0000 C.3     1  UNL1        0.0168
     16 C           4.7760   -1.2916    0.0000 C.3     1  UNL1        0.0324
     17 C           7.6753    1.4590    0.0000 C.3     1  UNL1        0.0316
     18 C           7.3333    0.5193    0.0000 C.3     1  UNL1        0.0955
     19 C           3.9099   -0.7916    0.0000 C.3     1  UNL1        0.0080
     20 C           4.7760    0.7084    0.0000 C.3     1  UNL1        0.0901
     21 C           3.9099    0.2084    0.0000 C.3     1  UNL1        0.0892
     22 C           7.9814   -0.5237    0.0000 C.3     1  UNL1       -0.0149
     23 C           2.9999   -1.2984    0.0000 C.3     1  UNL1        0.0232
     24 C           8.9671    2.2150    0.0000 C.3     1  UNL1        0.1545
     25 C           4.7920   -2.3331    0.0000 C.3     1  UNL1        0.0660
     26 C           6.6138   -1.0008    0.0000 C.3     1  UNL1        0.1591
     27 C           6.6420    0.2084    0.0000 C.3     1  UNL1       -0.0539
     28 C           5.4430   -2.0286    0.0000 C.3     1  UNL1        0.0574
     29 C           6.6680    3.0275    0.0000 C.3     1  UNL1       -0.0326
     30 C           2.9919   -2.3400    0.0000 C.3     1  UNL1        0.0654
     31 C           9.7443    1.5856    0.0000 C.3     1  UNL1        0.2342
     32 C           2.4131   -0.4963    0.0000 C.3     1  UNL1        0.0562
     33 C           3.8940   -2.8608    0.0000 C.3     1  UNL1        0.0005
     34 C           2.0000   -1.2868    0.0000 C.3     1  UNL1       -0.0547
     35 C           9.3258    3.1421    0.0000 C.2     1  UNL1       -0.0121
     36 C           7.5983   -1.1761    0.0000 C.2     1  UNL1        0.3363
     37 C          10.3184    3.0892    0.0000 C.2     1  UNL1        0.0870
     38 C           7.2946   -2.8813    0.0000 C.3     1  UNL1        0.0817
     39 H           6.3032   -0.2575    0.0000 H       1  UNL1        0.0345
     40 H           7.9660    2.2578    0.0000 H       1  UNL1        0.0363
     41 H           7.8846    0.2357    0.0000 H       1  UNL1        0.0627
     42 H           3.9099   -1.6416    0.0000 H       1  UNL1        0.0340
     43 H           5.3129    1.0184    0.0000 H       1  UNL1        0.0626
     44 H           3.7510    1.0434    0.0000 H       1  UNL1        0.0625
     45 H           7.6184   -1.0264    0.0000 H       1  UNL1        0.0296
     46 H           8.5842   -0.6688    0.0000 H       1  UNL1        0.0296
     47 H           4.7980   -2.9530    0.0000 H       1  UNL1        0.0600
     48 H           6.9879   -1.4952    0.0000 H       1  UNL1        0.0716
     49 H           6.6420   -0.4116    0.0000 H       1  UNL1        0.0237
     50 H           7.2620    0.2084    0.0000 H       1  UNL1        0.0237
     51 H           6.6420    0.8284    0.0000 H       1  UNL1        0.0237
     52 H           4.9169   -2.3565    0.0000 H       1  UNL1        0.0567
     53 H           5.6725   -2.6046    0.0000 H       1  UNL1        0.0567
     54 H           7.2507    2.8155    0.0000 H       1  UNL1        0.0258
     55 H           6.8801    3.6101    0.0000 H       1  UNL1        0.0258
     56 H           6.0854    3.2396    0.0000 H       1  UNL1        0.0258
     57 H           2.4568   -2.0269    0.0000 H       1  UNL1        0.0600
     58 H          10.4048    1.0507    0.0000 H       1  UNL1        0.1090
     59 H           1.9292   -0.1088    0.0000 H       1  UNL1        0.0566
     60 H           1.9653   -0.9251    0.0000 H       1  UNL1        0.0566
     61 H           3.4967   -3.3368    0.0000 H       1  UNL1        0.0315
     62 H           4.2950   -3.3337    0.0000 H       1  UNL1        0.0315
     63 H           2.0072   -0.6669    0.0000 H       1  UNL1        0.0237
     64 H           1.3800   -1.2797    0.0000 H       1  UNL1        0.0237
     65 H           1.9928   -1.9068    0.0000 H       1  UNL1        0.0237
     66 H           4.2390    2.0184    0.0000 H       1  UNL1        0.2099
     67 H           8.9890    3.6626    0.0000 H       1  UNL1        0.0633
     68 H           8.2870    3.4567    0.0000 H       1  UNL1        0.2109
     69 H           5.6709   -3.4430    0.0000 H       1  UNL1        0.2098
     70 H          10.7086    3.5710    0.0000 H       1  UNL1        0.1022
     71 H           2.1216   -3.4567    0.0000 H       1  UNL1        0.2098
     72 H           6.8203   -2.4820    0.0000 H       1  UNL1        0.0661
     73 H           6.8952   -3.3556    0.0000 H       1  UNL1        0.0661
     74 H           7.7688   -3.2807    0.0000 H       1  UNL1        0.0661
@<TRIPOS>BOND
     1    12     1    1
     2     1    14    1
     3     2    18    1
     4     2    31    1
     5     3    21    1
     6     3    32    1
     7     4    26    1
     8     4    28    1
     9    20     5    1
    10     5    66    1
    11    24     6    1
    12     6    68    1
    13    25     7    1
    14     7    69    1
    15     8    31    1
    16     8    37    1
    17    30     9    1
    18     9    71    1
    19    10    36    1
    20    10    38    1
    21    11    36    2
    22    12    13    1
    23    12    14    1
    24    12    18    1
    25    13    15    1
    26    13    20    1
    27    13    27    1
    28    14    17    1
    29    14    29    1
    30    15    16    1
    31    15    26    1
    32    15    39    1
    33    16    19    1
    34    16    25    1
    35    16    28    1
    36    17    22    1
    37    17    24    1
    38    17    40    1
    39    18    22    1
    40    18    41    1
    41    19    21    1
    42    19    23    1
    43    19    42    1
    44    20    21    1
    45    20    43    1
    46    21    44    1
    47    22    45    1
    48    22    46    1
    49    23    30    1
    50    23    32    1
    51    23    34    1
    52    24    31    1
    53    24    35    1
    54    25    33    1
    55    25    47    1
    56    26    36    1
    57    26    48    1
    58    27    49    1
    59    27    50    1
    60    27    51    1
    61    28    52    1
    62    28    53    1
    63    29    54    1
    64    29    55    1
    65    29    56    1
    66    30    33    1
    67    30    57    1
    68    31    58    1
    69    32    59    1
    70    32    60    1
    71    33    61    1
    72    33    62    1
    73    34    63    1
    74    34    64    1
    75    34    65    1
    76    35    37    2
    77    35    67    1
    78    37    70    1
    79    38    72    1
    80    38    73    1
    81    38    74    1
