@<TRIPOS>MOLECULE
IMPHY010828
 33 36 0 0 0
SMALL
GASTEIGER

@<TRIPOS>ATOM
      1 O           7.4714   -0.0057    0.0000 O.2     1  UNL1       -0.4619
      2 O           3.9271    1.7991    0.0000 O.2     1  UNL1       -0.2831
      3 O           5.6591    2.7991    0.0000 O.2     1  UNL1       -0.2830
      4 C           4.7931    0.2991    0.0000 C.ar    1  UNL1        0.0439
      5 C           5.6591   -0.2009    0.0000 C.ar    1  UNL1        0.0295
      6 C           3.8831   -0.2078    0.0000 C.ar    1  UNL1       -0.0060
      7 C           6.5251    0.2991    0.0000 C.ar    1  UNL1        0.1466
      8 C           6.5251    1.2991    0.0000 C.ar    1  UNL1        0.0741
      9 C           3.8751   -1.2494    0.0000 C.ar    1  UNL1       -0.0143
     10 C           4.7931    1.2991    0.0000 C.2     1  UNL1        0.2343
     11 C           5.6752   -1.2424    0.0000 C.ar    1  UNL1       -0.0498
     12 C           7.4714    1.6038    0.0000 C.ar    1  UNL1       -0.0011
     13 C           5.6591    1.7991    0.0000 C.2     1  UNL1        0.2368
     14 C           4.7771   -1.7702    0.0000 C.ar    1  UNL1       -0.0531
     15 C           2.9396   -1.7991    0.0000 C.ar    1  UNL1       -0.0427
     16 C           2.9562    0.3563    0.0000 C.ar    1  UNL1       -0.0533
     17 C           8.0550    0.7991    0.0000 C.ar    1  UNL1        0.0962
     18 C           2.0000   -1.2566    0.0000 C.ar    1  UNL1       -0.0582
     19 C           2.0084   -0.1716    0.0000 C.ar    1  UNL1       -0.0609
     20 C           7.7820    2.5543    0.0000 C.3     1  UNL1       -0.0360
     21 C           2.9435   -2.7991    0.0000 C.3     1  UNL1       -0.0391
     22 H           6.2157   -1.5462    0.0000 H       1  UNL1        0.0625
     23 H           4.7795   -2.3902    0.0000 H       1  UNL1        0.0624
     24 H           2.9682    0.9762    0.0000 H       1  UNL1        0.0624
     25 H           8.6750    0.7991    0.0000 H       1  UNL1        0.1032
     26 H           1.4619   -1.5645    0.0000 H       1  UNL1        0.0620
     27 H           1.4750    0.1446    0.0000 H       1  UNL1        0.0618
     28 H           8.3713    2.3617    0.0000 H       1  UNL1        0.0279
     29 H           7.9746    3.1437    0.0000 H       1  UNL1        0.0279
     30 H           7.1927    2.7469    0.0000 H       1  UNL1        0.0279
     31 H           2.3235   -2.8015    0.0000 H       1  UNL1        0.0278
     32 H           2.9459   -3.4191    0.0000 H       1  UNL1        0.0278
     33 H           3.5635   -2.7967    0.0000 H       1  UNL1        0.0278
@<TRIPOS>BOND
     1     1     7   ar
     2     1    17   ar
     3     2    10    2
     4     3    13    2
     5     4     5   ar
     6     4     6   ar
     7     4    10    1
     8     5     7    1
     9     5    11   ar
    10     6     9   ar
    11     6    16   ar
    12     7     8   ar
    13     8    12   ar
    14     8    13    1
    15     9    14   ar
    16     9    15   ar
    17    10    13    1
    18    11    14   ar
    19    11    22    1
    20    12    17   ar
    21    12    20    1
    22    14    23    1
    23    15    18   ar
    24    15    21    1
    25    16    19   ar
    26    16    24    1
    27    17    25    1
    28    18    19   ar
    29    18    26    1
    30    19    27    1
    31    20    28    1
    32    20    29    1
    33    20    30    1
    34    21    31    1
    35    21    32    1
    36    21    33    1
