@<TRIPOS>MOLECULE
IMPHY016220
 24 23 0 0 0
SMALL
GASTEIGER

@<TRIPOS>ATOM
      1 O           3.7320    0.2500    0.0000 O.3     1  UNL1       -0.4607
      2 O           8.0622   -0.2500    0.0000 O.3     1  UNL1       -0.4607
      3 O           2.8660   -1.2500    0.0000 O.2     1  UNL1       -0.2512
      4 O           8.9282    1.2500    0.0000 O.2     1  UNL1       -0.2512
      5 C           4.5981   -0.2500    0.0000 C.3     1  UNL1        0.1108
      6 C           7.1962    0.2500    0.0000 C.3     1  UNL1        0.1108
      7 C           5.4641    0.2500    0.0000 C.2     1  UNL1       -0.0478
      8 C           6.3301   -0.2500    0.0000 C.2     1  UNL1       -0.0478
      9 C           2.8660   -0.2500    0.0000 C.2     1  UNL1        0.3042
     10 C           8.9282    0.2500    0.0000 C.2     1  UNL1        0.3042
     11 C           2.0000    0.2500    0.0000 C.3     1  UNL1        0.0332
     12 C           9.7942   -0.2500    0.0000 C.3     1  UNL1        0.0332
     13 H           4.1996   -0.7249    0.0000 H       1  UNL1        0.0743
     14 H           4.9966   -0.7249    0.0000 H       1  UNL1        0.0743
     15 H           7.5947    0.7249    0.0000 H       1  UNL1        0.0743
     16 H           6.7976    0.7249    0.0000 H       1  UNL1        0.0743
     17 H           5.4641    0.8700    0.0000 H       1  UNL1        0.0603
     18 H           6.3301   -0.8700    0.0000 H       1  UNL1        0.0603
     19 H           2.3100    0.7869    0.0000 H       1  UNL1        0.0342
     20 H           1.4631    0.5600    0.0000 H       1  UNL1        0.0342
     21 H           1.6900   -0.2869    0.0000 H       1  UNL1        0.0342
     22 H           9.4842   -0.7869    0.0000 H       1  UNL1        0.0342
     23 H          10.3312   -0.5600    0.0000 H       1  UNL1        0.0342
     24 H          10.1042    0.2869    0.0000 H       1  UNL1        0.0342
@<TRIPOS>BOND
     1     1     5    1
     2     1     9    1
     3     2     6    1
     4     2    10    1
     5     3     9    2
     6     4    10    2
     7     5     7    1
     8     5    13    1
     9     5    14    1
    10     6     8    1
    11     6    15    1
    12     6    16    1
    13     7     8    2
    14     7    17    1
    15     8    18    1
    16     9    11    1
    17    10    12    1
    18    11    19    1
    19    11    20    1
    20    11    21    1
    21    12    22    1
    22    12    23    1
    23    12    24    1
