@<TRIPOS>MOLECULE
IMPHY000054
 38 39 0 0 0
SMALL
GASTEIGER

@<TRIPOS>ATOM
      1 O           2.5369   -1.5000    0.0000 O.3     1  UNL1       -0.3888
      2 C           4.2690   -0.5000    0.0000 C.3     1  UNL1       -0.0084
      3 C           4.2690    0.5000    0.0000 C.3     1  UNL1       -0.0433
      4 C           3.4030   -1.0000    0.0000 C.3     1  UNL1        0.0636
      5 C           5.1350   -1.0000    0.0000 C.3     1  UNL1       -0.0217
      6 C           5.1350    1.0000    0.0000 C.3     1  UNL1       -0.0268
      7 C           6.0010   -0.5000    0.0000 C.ar    1  UNL1       -0.0407
      8 C           6.0010    0.5000    0.0000 C.ar    1  UNL1       -0.0410
      9 C           2.9030   -0.1340    0.0000 C.3     1  UNL1       -0.0361
     10 C           3.9030   -1.8660    0.0000 C.3     1  UNL1       -0.0361
     11 C           6.8950   -1.0347    0.0000 C.ar    1  UNL1       -0.0470
     12 C           6.8950    1.0347    0.0000 C.ar    1  UNL1       -0.0470
     13 C           7.8010   -0.5208    0.0000 C.ar    1  UNL1       -0.0583
     14 C           7.8010    0.5208    0.0000 C.ar    1  UNL1       -0.0583
     15 C           6.8834   -2.0346    0.0000 C.3     1  UNL1       -0.0394
     16 C           6.8834    2.0346    0.0000 C.3     1  UNL1       -0.0394
     17 H           3.5329   -0.0750    0.0000 H       1  UNL1        0.0331
     18 H           4.0569    1.0826    0.0000 H       1  UNL1        0.0272
     19 H           3.6584    0.3923    0.0000 H       1  UNL1        0.0272
     20 H           4.7365   -1.4750    0.0000 H       1  UNL1        0.0317
     21 H           5.5335   -1.4750    0.0000 H       1  UNL1        0.0317
     22 H           5.5335    1.4750    0.0000 H       1  UNL1        0.0313
     23 H           4.7365    1.4750    0.0000 H       1  UNL1        0.0313
     24 H           3.3660   -2.1760    0.0000 H       1  UNL1        0.0257
     25 H           3.4399    0.1760    0.0000 H       1  UNL1        0.0257
     26 H           2.5930    0.4030    0.0000 H       1  UNL1        0.0257
     27 H           2.3660   -0.4440    0.0000 H       1  UNL1        0.0257
     28 H           4.2130   -2.4030    0.0000 H       1  UNL1        0.0257
     29 H           4.4399   -1.5560    0.0000 H       1  UNL1        0.0257
     30 H           2.0000   -1.1900    0.0000 H       1  UNL1        0.2101
     31 H           8.3368   -0.8329    0.0000 H       1  UNL1        0.0620
     32 H           8.3368    0.8329    0.0000 H       1  UNL1        0.0620
     33 H           6.2635   -2.0274    0.0000 H       1  UNL1        0.0278
     34 H           6.8762   -2.6546    0.0000 H       1  UNL1        0.0278
     35 H           7.5034   -2.0418    0.0000 H       1  UNL1        0.0278
     36 H           7.5034    2.0418    0.0000 H       1  UNL1        0.0278
     37 H           6.8762    2.6546    0.0000 H       1  UNL1        0.0278
     38 H           6.2635    2.0274    0.0000 H       1  UNL1        0.0278
@<TRIPOS>BOND
     1     1     4    1
     2     1    30    1
     3     2     3    1
     4     2     4    1
     5     2     5    1
     6     2    17    1
     7     3     6    1
     8     3    18    1
     9     3    19    1
    10     4     9    1
    11     4    10    1
    12     5     7    1
    13     5    20    1
    14     5    21    1
    15     6     8    1
    16     6    22    1
    17     6    23    1
    18     7     8   ar
    19     7    11   ar
    20     8    12   ar
    21     9    25    1
    22     9    26    1
    23     9    27    1
    24    10    24    1
    25    10    28    1
    26    10    29    1
    27    11    13   ar
    28    11    15    1
    29    12    14   ar
    30    12    16    1
    31    13    14   ar
    32    13    31    1
    33    14    32    1
    34    15    33    1
    35    15    34    1
    36    15    35    1
    37    16    36    1
    38    16    37    1
    39    16    38    1
