@<TRIPOS>MOLECULE
IMPHY009504
 78 85 0 0 0
SMALL
GASTEIGER

@<TRIPOS>ATOM
      1 O           6.7281    3.3665    0.0000 O.3     1  UNL1       -0.3591
      2 O           6.3861    1.5776    0.0000 O.3     1  UNL1       -0.3145
      3 O           5.5000    1.0932    0.0000 O.3     1  UNL1       -0.3155
      4 O           5.6060   -0.4833    0.0000 O.3     1  UNL1       -0.3052
      5 O           7.5337   -1.6012    0.0000 O.3     1  UNL1       -0.4541
      6 O           9.5633    3.4103    0.0000 O.3     1  UNL1       -0.3773
      7 O           9.1512    4.1182    0.0000 O.3     1  UNL1       -0.3854
      8 O           7.9755    4.9299    0.0000 O.3     1  UNL1       -0.3920
      9 O          10.8455    3.3794    0.0000 O.2     1  UNL1       -0.2892
     10 O           9.2604   -1.4651    0.0000 O.2     1  UNL1       -0.2449
     11 C           7.3164    1.4604    0.0000 C.3     1  UNL1        0.0480
     12 C           8.2173    1.0265    0.0000 C.3     1  UNL1        0.0985
     13 C           7.0938    2.4354    0.0000 C.3     1  UNL1        0.1013
     14 C           7.7173    3.2172    0.0000 C.3     1  UNL1        0.1479
     15 C           6.4468    0.8870    0.0000 C.3     1  UNL1        0.1089
     16 C           9.1183    1.4604    0.0000 C.3     1  UNL1        0.0465
     17 C           8.3112   -0.0109    0.0000 C.3     1  UNL1        0.0269
     18 C           6.5166   -0.1523    0.0000 C.3     1  UNL1        0.1593
     19 C           9.3408    2.4354    0.0000 C.3     1  UNL1        0.1650
     20 C           8.7173    3.2172    0.0000 C.3     1  UNL1        0.1252
     21 C           7.4551   -0.6042    0.0000 C.3     1  UNL1        0.1438
     22 C           4.9932    0.2673    0.0000 C.3     1  UNL1        0.3163
     23 C           8.3408    3.9990    0.0000 C.3     1  UNL1        0.0783
     24 C           9.9730    0.9528    0.0000 C.2     1  UNL1       -0.0687
     25 C           9.2171   -0.4343    0.0000 C.3     1  UNL1       -0.0563
     26 C          10.3311    2.5219    0.0000 C.2     1  UNL1        0.1933
     27 C           6.5836   -1.1500    0.0000 C.2     1  UNL1       -0.0421
     28 C          10.7210    1.6075    0.0000 C.2     1  UNL1       -0.0085
     29 C           3.9955    0.2003    0.0000 C.ar    1  UNL1        0.0409
     30 C           5.7531   -1.7070    0.0000 C.3     1  UNL1       -0.0411
     31 C           6.6507   -2.1478    0.0000 C.2     1  UNL1       -0.0968
     32 C          11.6960    1.3849    0.0000 C.3     1  UNL1       -0.0366
     33 C           3.4386    1.0308    0.0000 C.ar    1  UNL1       -0.0510
     34 C           3.5547   -0.6973    0.0000 C.ar    1  UNL1       -0.0510
     35 C           8.4363   -2.0316    0.0000 C.2     1  UNL1        0.3396
     36 C           2.4408    0.9638    0.0000 C.ar    1  UNL1       -0.0613
     37 C           2.5569   -0.7643    0.0000 C.ar    1  UNL1       -0.0613
     38 C           8.5149   -3.0285    0.0000 C.ar    1  UNL1        0.0590
     39 C           2.0000    0.0662    0.0000 C.ar    1  UNL1       -0.0617
     40 C           7.6908   -3.5950    0.0000 C.ar    1  UNL1       -0.0478
     41 C           9.4175   -3.4589    0.0000 C.ar    1  UNL1       -0.0478
     42 C           7.7694   -4.5919    0.0000 C.ar    1  UNL1       -0.0610
     43 C           9.4961   -4.4558    0.0000 C.ar    1  UNL1       -0.0610
     44 C           8.6720   -5.0223    0.0000 C.ar    1  UNL1       -0.0617
     45 H           6.7915    2.1290    0.0000 H       1  UNL1        0.0381
     46 H           6.2816    2.1847    0.0000 H       1  UNL1        0.0631
     47 H           5.7904    1.4270    0.0000 H       1  UNL1        0.0636
     48 H           9.0813    0.6112    0.0000 H       1  UNL1        0.0405
     49 H           8.3635   -0.6287    0.0000 H       1  UNL1        0.0363
     50 H           8.3875    3.7422    0.0000 H       1  UNL1        0.0657
     51 H           8.0152   -0.8700    0.0000 H       1  UNL1        0.0771
     52 H           8.7511    3.5342    0.0000 H       1  UNL1        0.0588
     53 H           8.8699    4.3223    0.0000 H       1  UNL1        0.0588
     54 H          10.0296    0.3354    0.0000 H       1  UNL1        0.0580
     55 H           8.9546   -0.9960    0.0000 H       1  UNL1        0.0234
     56 H           9.7788   -0.6968    0.0000 H       1  UNL1        0.0234
     57 H           9.4796    0.1274    0.0000 H       1  UNL1        0.0234
     58 H          10.1558    3.5930    0.0000 H       1  UNL1        0.2109
     59 H           8.8020    4.6304    0.0000 H       1  UNL1        0.2100
     60 H           5.4078   -1.1920    0.0000 H       1  UNL1        0.0275
     61 H           5.2382   -2.0523    0.0000 H       1  UNL1        0.0275
     62 H           6.0984   -2.2219    0.0000 H       1  UNL1        0.0275
     63 H           7.3624    5.0223    0.0000 H       1  UNL1        0.2095
     64 H           6.1358   -2.4931    0.0000 H       1  UNL1        0.0535
     65 H           7.2072   -2.4211    0.0000 H       1  UNL1        0.0535
     66 H          11.5580    0.7805    0.0000 H       1  UNL1        0.0279
     67 H          12.3004    1.2470    0.0000 H       1  UNL1        0.0279
     68 H          11.8339    1.9894    0.0000 H       1  UNL1        0.0279
     69 H           3.7119    1.5874    0.0000 H       1  UNL1        0.0623
     70 H           3.9000   -1.2122    0.0000 H       1  UNL1        0.0623
     71 H           2.0955    1.4788    0.0000 H       1  UNL1        0.0618
     72 H           2.2836   -1.3209    0.0000 H       1  UNL1        0.0618
     73 H           1.3814    0.0246    0.0000 H       1  UNL1        0.0618
     74 H           7.1312   -3.3281    0.0000 H       1  UNL1        0.0626
     75 H           9.9284   -3.1076    0.0000 H       1  UNL1        0.0626
     76 H           7.2585   -4.9431    0.0000 H       1  UNL1        0.0618
     77 H          10.0557   -4.7226    0.0000 H       1  UNL1        0.0618
     78 H           8.7207   -5.6404    0.0000 H       1  UNL1        0.0618
@<TRIPOS>BOND
     1     1    13    1
     2     1    14    1
     3    12     2    1
     4     2    22    1
     5     3    15    1
     6     3    22    1
     7     4    18    1
     8     4    22    1
     9    21     5    1
    10     5    35    1
    11    19     6    1
    12     6    58    1
    13    20     7    1
    14     7    59    1
    15     8    23    1
    16     8    63    1
    17     9    26    2
    18    10    35    2
    19    11    12    1
    20    11    13    1
    21    11    15    1
    22    11    45    1
    23    12    16    1
    24    12    17    1
    25    13    14    1
    26    13    46    1
    27    14    20    1
    28    14    23    1
    29    15    18    1
    30    15    47    1
    31    16    19    1
    32    16    24    1
    33    16    48    1
    34    17    21    1
    35    17    25    1
    36    17    49    1
    37    18    21    1
    38    18    27    1
    39    19    20    1
    40    19    26    1
    41    20    50    1
    42    21    51    1
    43    22    29    1
    44    23    52    1
    45    23    53    1
    46    24    28    2
    47    24    54    1
    48    25    55    1
    49    25    56    1
    50    25    57    1
    51    26    28    1
    52    27    30    1
    53    27    31    2
    54    28    32    1
    55    29    33   ar
    56    29    34   ar
    57    30    60    1
    58    30    61    1
    59    30    62    1
    60    31    64    1
    61    31    65    1
    62    32    66    1
    63    32    67    1
    64    32    68    1
    65    33    36   ar
    66    33    69    1
    67    34    37   ar
    68    34    70    1
    69    35    38    1
    70    36    39   ar
    71    36    71    1
    72    37    39   ar
    73    37    72    1
    74    38    40   ar
    75    38    41   ar
    76    39    73    1
    77    40    42   ar
    78    40    74    1
    79    41    43   ar
    80    41    75    1
    81    42    44   ar
    82    42    76    1
    83    43    44   ar
    84    43    77    1
    85    44    78    1
