@<TRIPOS>MOLECULE
IMPHY015256
 19 18 0 0 0
SMALL
GASTEIGER

@<TRIPOS>ATOM
      1 O           2.0000    0.1900    0.0000 O.2     1  UNL1       -0.3007
      2 C           3.7320    0.1900    0.0000 C.3     1  UNL1        0.0140
      3 C           4.5981    0.6900    0.0000 C.3     1  UNL1       -0.0466
      4 C           3.7320   -0.8100    0.0000 C.3     1  UNL1       -0.0466
      5 C           5.4641    0.1900    0.0000 C.3     1  UNL1       -0.0646
      6 C           4.5981   -1.3100    0.0000 C.3     1  UNL1       -0.0646
      7 C           2.8660    0.6900    0.0000 C.2     1  UNL1        0.1233
      8 H           3.7320    0.8100    0.0000 H       1  UNL1        0.0374
      9 H           4.9966    1.1650    0.0000 H       1  UNL1        0.0269
     10 H           4.1996    1.1650    0.0000 H       1  UNL1        0.0269
     11 H           3.1215   -0.7023    0.0000 H       1  UNL1        0.0269
     12 H           3.5200   -1.3926    0.0000 H       1  UNL1        0.0269
     13 H           5.1541   -0.3469    0.0000 H       1  UNL1        0.0230
     14 H           6.0010   -0.1200    0.0000 H       1  UNL1        0.0230
     15 H           5.7741    0.7269    0.0000 H       1  UNL1        0.0230
     16 H           4.2881   -1.8469    0.0000 H       1  UNL1        0.0230
     17 H           5.1350   -1.6200    0.0000 H       1  UNL1        0.0230
     18 H           4.9081   -0.7731    0.0000 H       1  UNL1        0.0230
     19 H           2.8660    1.3100    0.0000 H       1  UNL1        0.1029
@<TRIPOS>BOND
     1     1     7    2
     2     2     3    1
     3     2     4    1
     4     2     7    1
     5     2     8    1
     6     3     5    1
     7     3     9    1
     8     3    10    1
     9     4     6    1
    10     4    11    1
    11     4    12    1
    12     5    13    1
    13     5    14    1
    14     5    15    1
    15     6    16    1
    16     6    17    1
    17     6    18    1
    18     7    19    1
