@<TRIPOS>MOLECULE
IMPHY006688
 38 43 0 0 0
SMALL
GASTEIGER

@<TRIPOS>ATOM
      1 O           5.5740   -3.5278    0.0000 O.3     1  UNL1       -0.4526
      2 O           4.0684   -4.4125    0.0000 O.3     1  UNL1       -0.4526
      3 O           2.9950    3.5673    0.0000 O.3     1  UNL1       -0.4518
      4 O           4.4403    4.4167    0.0000 O.3     1  UNL1       -0.4526
      5 N           2.9180    0.3368    0.0000 N.ar    1  UNL1       -0.1961
      6 C           2.0080   -0.1700    0.0000 C.3     1  UNL1        0.1550
      7 C           3.7841   -0.1632    0.0000 C.ar    1  UNL1        0.2159
      8 C           2.0000   -1.2116    0.0000 C.3     1  UNL1        0.0330
      9 C           3.8001   -1.2047    0.0000 C.ar    1  UNL1        0.0533
     10 C           2.9021   -1.7324    0.0000 C.ar    1  UNL1       -0.0243
     11 C           3.7841    1.8368    0.0000 C.ar    1  UNL1        0.0911
     12 C           2.9180    1.3368    0.0000 C.ar    1  UNL1        0.1831
     13 C           4.6501    0.3368    0.0000 C.ar    1  UNL1        0.0183
     14 C           4.6501    1.3368    0.0000 C.ar    1  UNL1       -0.0022
     15 C           4.7520   -1.7253    0.0000 C.ar    1  UNL1       -0.0025
     16 C           2.8937   -2.8174    0.0000 C.ar    1  UNL1       -0.0120
     17 C           3.7680    2.8783    0.0000 C.ar    1  UNL1        0.1795
     18 C           4.7688   -2.8102    0.0000 C.ar    1  UNL1        0.1670
     19 C           3.8334   -3.3599    0.0000 C.ar    1  UNL1        0.1665
     20 C           5.5601    1.8437    0.0000 C.ar    1  UNL1       -0.0499
     21 C           4.6660    3.4061    0.0000 C.ar    1  UNL1        0.1671
     22 C           5.5681    2.8853    0.0000 C.ar    1  UNL1       -0.0155
     23 C           5.1420   -4.5161    0.0000 C.3     1  UNL1        0.2332
     24 C           3.4096    4.5161    0.0000 C.3     1  UNL1        0.2333
     25 H           1.8035    0.4153    0.0000 H       1  UNL1        0.1034
     26 H           1.3964   -0.2714    0.0000 H       1  UNL1        0.1034
     27 H           1.3900   -1.1008    0.0000 H       1  UNL1        0.0375
     28 H           1.7864   -1.7937    0.0000 H       1  UNL1        0.0375
     29 H           2.3811    1.6468    0.0000 H       1  UNL1        0.1384
     30 H           5.1870    0.0268    0.0000 H       1  UNL1        0.0690
     31 H           5.2829   -1.4050    0.0000 H       1  UNL1        0.0663
     32 H           2.3556   -3.1253    0.0000 H       1  UNL1        0.0658
     33 H           6.0934    1.5275    0.0000 H       1  UNL1        0.0625
     34 H           6.1062    3.1932    0.0000 H       1  UNL1        0.0655
     35 H           5.0180   -5.1235    0.0000 H       1  UNL1        0.1166
     36 H           5.7331   -4.7033    0.0000 H       1  UNL1        0.1166
     37 H           3.5337    5.1235    0.0000 H       1  UNL1        0.1166
     38 H           2.8186    4.7033    0.0000 H       1  UNL1        0.1166
@<TRIPOS>UNITY_ATOM_ATTR
5 1
charge 1
@<TRIPOS>BOND
     1     1    18    1
     2     1    23    1
     3     2    19    1
     4     2    23    1
     5     3    17    1
     6     3    24    1
     7     4    21    1
     8     4    24    1
     9     5     6    1
    10     5     7   ar
    11     5    12   ar
    12     6     8    1
    13     6    25    1
    14     6    26    1
    15     7     9    1
    16     7    13   ar
    17     8    10    1
    18     8    27    1
    19     8    28    1
    20     9    10   ar
    21     9    15   ar
    22    10    16   ar
    23    11    12   ar
    24    11    14   ar
    25    11    17   ar
    26    12    29    1
    27    13    14   ar
    28    13    30    1
    29    14    20   ar
    30    15    18   ar
    31    15    31    1
    32    16    19   ar
    33    16    32    1
    34    17    21   ar
    35    18    19   ar
    36    20    22   ar
    37    20    33    1
    38    21    22   ar
    39    22    34    1
    40    23    35    1
    41    23    36    1
    42    24    37    1
    43    24    38    1
