@<TRIPOS>MOLECULE
IMPHY015765
 47 49 0 0 0
SMALL
GASTEIGER

@<TRIPOS>ATOM
      1 O           6.2461   -1.2462    0.0000 O.3     1  UNL1       -0.4645
      2 O           7.8343   -0.5550    0.0000 O.2     1  UNL1       -0.2512
      3 C           3.9985    0.2426    0.0000 C.3     1  UNL1       -0.0317
      4 C           3.1621    0.6454    0.0000 C.3     1  UNL1       -0.0293
      5 C           4.8348    0.6454    0.0000 C.3     1  UNL1       -0.0228
      6 C           3.1514   -0.2163    0.0000 C.3     1  UNL1       -0.0310
      7 C           4.8535   -0.2163    0.0000 C.3     1  UNL1        0.0021
      8 C           2.9556    1.5503    0.0000 C.3     1  UNL1       -0.0315
      9 C           4.4917   -0.7269    0.0000 C.3     1  UNL1       -0.0492
     10 C           3.6195   -1.1311    0.0000 C.3     1  UNL1       -0.0493
     11 C           5.0414    1.5503    0.0000 C.3     1  UNL1       -0.0470
     12 C           3.5344    2.2760    0.0000 C.3     1  UNL1       -0.0476
     13 C           5.8297    0.5441    0.0000 C.3     1  UNL1       -0.0589
     14 C           4.4626    2.2760    0.0000 C.3     1  UNL1       -0.0521
     15 C           5.8471   -0.3292    0.0000 C.3     1  UNL1        0.0960
     16 C           2.1294    2.1137    0.0000 C.3     1  UNL1       -0.0595
     17 C           2.0000    1.2556    0.0000 C.3     1  UNL1       -0.0595
     18 C           7.2397   -1.3591    0.0000 C.2     1  UNL1        0.3040
     19 C           7.6387   -2.2760    0.0000 C.3     1  UNL1        0.0332
     20 H           4.5859    0.0442    0.0000 H       1  UNL1        0.0309
     21 H           2.5456    0.5798    0.0000 H       1  UNL1        0.0312
     22 H           2.3239   -0.4103    0.0000 H       1  UNL1        0.0308
     23 H           4.8184   -0.8353    0.0000 H       1  UNL1        0.0342
     24 H           4.7593   -1.2861    0.0000 H       1  UNL1        0.0268
     25 H           5.0477   -0.4525    0.0000 H       1  UNL1        0.0268
     26 H           3.0639   -1.4063    0.0000 H       1  UNL1        0.0268
     27 H           3.8874   -1.6902    0.0000 H       1  UNL1        0.0268
     28 H           5.6000    1.2813    0.0000 H       1  UNL1        0.0271
     29 H           5.4279    2.0350    0.0000 H       1  UNL1        0.0271
     30 H           3.6723    2.8805    0.0000 H       1  UNL1        0.0271
     31 H           2.9758    2.5450    0.0000 H       1  UNL1        0.0271
     32 H           5.7669   -0.0727    0.0000 H       1  UNL1        0.0235
     33 H           6.4465    0.4814    0.0000 H       1  UNL1        0.0235
     34 H           5.8924    1.1610    0.0000 H       1  UNL1        0.0235
     35 H           5.0212    2.5450    0.0000 H       1  UNL1        0.0266
     36 H           4.3246    2.8805    0.0000 H       1  UNL1        0.0266
     37 H           6.4499   -0.1843    0.0000 H       1  UNL1        0.0700
     38 H           5.8090    0.2896    0.0000 H       1  UNL1        0.0700
     39 H           2.4787    2.6259    0.0000 H       1  UNL1        0.0235
     40 H           1.6172    2.4630    0.0000 H       1  UNL1        0.0235
     41 H           1.7801    1.6014    0.0000 H       1  UNL1        0.0235
     42 H           1.8173    1.8481    0.0000 H       1  UNL1        0.0235
     43 H           1.4075    1.0729    0.0000 H       1  UNL1        0.0235
     44 H           2.1827    0.6632    0.0000 H       1  UNL1        0.0235
     45 H           7.0702   -2.5234    0.0000 H       1  UNL1        0.0342
     46 H           7.8861   -2.8445    0.0000 H       1  UNL1        0.0342
     47 H           8.2072   -2.0286    0.0000 H       1  UNL1        0.0342
@<TRIPOS>BOND
     1     1    15    1
     2     1    18    1
     3     2    18    2
     4     3     4    1
     5     3     5    1
     6     3     9    1
     7     3    20    1
     8     4     6    1
     9     4     8    1
    10     4    21    1
    11     5     7    1
    12     5    11    1
    13     5    13    1
    14     6     7    1
    15     6    10    1
    16     6    22    1
    17     7    15    1
    18     7    23    1
    19     8    12    1
    20     8    16    1
    21     8    17    1
    22     9    10    1
    23     9    24    1
    24     9    25    1
    25    10    26    1
    26    10    27    1
    27    11    14    1
    28    11    28    1
    29    11    29    1
    30    12    14    1
    31    12    30    1
    32    12    31    1
    33    13    32    1
    34    13    33    1
    35    13    34    1
    36    14    35    1
    37    14    36    1
    38    15    37    1
    39    15    38    1
    40    16    39    1
    41    16    40    1
    42    16    41    1
    43    17    42    1
    44    17    43    1
    45    17    44    1
    46    18    19    1
    47    19    45    1
    48    19    46    1
    49    19    47    1
