@<TRIPOS>MOLECULE
IMPHY013797
 48 42 0 0 0
SMALL
GASTEIGER

@<TRIPOS>ATOM
      1 CA          7.6962   -2.1340    0.0000 Ca      1  UNL1        0.0000
      2 CA          3.2320    2.1340    0.0000 Ca      2  UNL2        0.0000
      3 CA          4.7320   -3.0000    0.0000 Ca      3  UNL3        0.0000
      4 CA          6.1962    3.0000    0.0000 Ca      4  UNL4        0.0000
      5 CA          8.4282    0.8660    0.0000 Ca      5  UNL5        0.0000
      6 CA          2.5000   -0.8660    0.0000 Ca      6  UNL6        0.0000
      7 P           6.3301   -2.5000    0.0000 P.3     7  UNL7        0.0000
      8 P           3.7320   -2.0000    0.0000 P.3     7  UNL7        0.0000
      9 P           8.0622   -0.5000    0.0000 P.3     7  UNL7        0.0000
     10 P           2.8660    0.5000    0.0000 P.3     7  UNL7        0.0000
     11 P           7.1962    2.0000    0.0000 P.3     7  UNL7        0.0000
     12 P           4.5981    2.5000    0.0000 P.3     7  UNL7        0.0000
     13 O           5.4641   -2.0000    0.0000 O.3     7  UNL7        0.0000
     14 O           3.7320   -1.0000    0.0000 O.3     7  UNL7        0.0000
     15 O           7.1962   -1.0000    0.0000 O.3     7  UNL7        0.0000
     16 O           3.7320    1.0000    0.0000 O.3     7  UNL7        0.0000
     17 O           7.1962    1.0000    0.0000 O.3     7  UNL7        0.0000
     18 O           5.4641    2.0000    0.0000 O.3     7  UNL7        0.0000
     19 O           7.1962   -3.0000    0.0000 O.co2   7  UNL7       -0.6600
     20 O           6.8301   -1.6340    0.0000 O.co2   7  UNL7       -0.6600
     21 O           4.7320   -2.0000    0.0000 O.co2   7  UNL7       -0.6600
     22 O           3.7320   -3.0000    0.0000 O.co2   7  UNL7       -0.6600
     23 O           7.5622    0.3660    0.0000 O.co2   7  UNL7       -0.6600
     24 O           8.9282   -0.0000    0.0000 O.co2   7  UNL7       -0.6600
     25 O           3.3660   -0.3660    0.0000 O.co2   7  UNL7       -0.6600
     26 O           2.0000    0.0000    0.0000 O.co2   7  UNL7       -0.6600
     27 O           6.1962    2.0000    0.0000 O.co2   7  UNL7       -0.6600
     28 O           7.1962    3.0000    0.0000 O.co2   7  UNL7       -0.6600
     29 O           3.7320    3.0000    0.0000 O.co2   7  UNL7       -0.6600
     30 O           4.0981    1.6340    0.0000 O.co2   7  UNL7       -0.6600
     31 O           5.8301   -3.3660    0.0000 O.2     7  UNL7       -0.6600
     32 O           2.7320   -2.0000    0.0000 O.2     7  UNL7       -0.6600
     33 O           8.5622   -1.3660    0.0000 O.2     7  UNL7       -0.6600
     34 O           2.3660    1.3660    0.0000 O.2     7  UNL7       -0.6600
     35 O           8.1962    2.0000    0.0000 O.2     7  UNL7       -0.6600
     36 O           5.0981    3.3660    0.0000 O.2     7  UNL7       -0.6600
     37 C           5.4641   -1.0000    0.0000 C.3     7  UNL7        0.0000
     38 C           4.5981   -0.5000    0.0000 C.3     7  UNL7        0.0000
     39 C           6.3301   -0.5000    0.0000 C.3     7  UNL7        0.0000
     40 C           4.5981    0.5000    0.0000 C.3     7  UNL7        0.0000
     41 C           6.3301    0.5000    0.0000 C.3     7  UNL7        0.0000
     42 C           5.4641    1.0000    0.0000 C.3     7  UNL7        0.0000
     43 H           6.0010   -1.3100    0.0000 H       7  UNL7        0.0000
     44 H           4.5981   -1.1200    0.0000 H       7  UNL7        0.0000
     45 H           6.3301   -1.1200    0.0000 H       7  UNL7        0.0000
     46 H           4.5981    1.1200    0.0000 H       7  UNL7        0.0000
     47 H           6.8671    0.1900    0.0000 H       7  UNL7        0.0000
     48 H           6.0010    1.3100    0.0000 H       7  UNL7        0.0000
@<TRIPOS>UNITY_ATOM_ATTR
1 1
charge 2
2 1
charge 2
3 1
charge 2
4 1
charge 2
5 1
charge 2
6 1
charge 2
19 1
charge -1
20 1
charge -1
21 1
charge -1
22 1
charge -1
23 1
charge -1
24 1
charge -1
25 1
charge -1
26 1
charge -1
27 1
charge -1
28 1
charge -1
29 1
charge -1
30 1
charge -1
@<TRIPOS>BOND
     1     7    13    1
     2     7    19    1
     3     7    20    1
     4     7    31    2
     5     8    14    1
     6     8    21    1
     7     8    22    1
     8     8    32    2
     9     9    15    1
    10     9    23    1
    11     9    24    1
    12     9    33    2
    13    10    16    1
    14    10    25    1
    15    10    26    1
    16    10    34    2
    17    11    17    1
    18    11    27    1
    19    11    28    1
    20    11    35    2
    21    12    18    1
    22    12    29    1
    23    12    30    1
    24    12    36    2
    25    13    37    1
    26    14    38    1
    27    15    39    1
    28    16    40    1
    29    17    41    1
    30    18    42    1
    31    37    38    1
    32    37    39    1
    33    37    43    1
    34    38    40    1
    35    38    44    1
    36    39    41    1
    37    39    45    1
    38    40    42    1
    39    40    46    1
    40    41    42    1
    41    41    47    1
    42    42    48    1
