@<TRIPOS>MOLECULE
IMPHY009574
 82 84 0 0 0
SMALL
GASTEIGER

@<TRIPOS>ATOM
      1 O           3.7320    3.5000    0.0000 O.3     1  UNL1       -0.4598
      2 O           8.9282   -3.5000    0.0000 O.3     1  UNL1       -0.4554
      3 O           4.5981    5.0000    0.0000 O.2     1  UNL1       -0.2508
      4 O           8.0622   -5.0000    0.0000 O.2     1  UNL1       -0.2508
      5 N           2.8660    1.0000    0.0000 N.3     1  UNL1       -0.3074
      6 N           8.0622   -1.0000    0.0000 N.2     1  UNL1       -0.2858
      7 C           3.7320    0.5000    0.0000 C.3     1  UNL1        0.0081
      8 C           2.8660    2.0000    0.0000 C.3     1  UNL1        0.0422
      9 C           4.5981    1.0000    0.0000 C.3     1  UNL1       -0.0341
     10 C           3.7320    2.5000    0.0000 C.3     1  UNL1        0.1181
     11 C           4.5981    2.0000    0.0000 C.3     1  UNL1       -0.0128
     12 C           3.7320   -0.5000    0.0000 C.3     1  UNL1       -0.0375
     13 C           4.5981   -1.0000    0.0000 C.3     1  UNL1       -0.0516
     14 C           2.0000    2.5000    0.0000 C.3     1  UNL1       -0.0462
     15 C           4.5981   -2.0000    0.0000 C.3     1  UNL1       -0.0530
     16 C           8.9282   -0.5000    0.0000 C.3     1  UNL1        0.0510
     17 C           5.4641   -2.5000    0.0000 C.3     1  UNL1       -0.0530
     18 C           9.8039   -0.9966    0.0000 C.3     1  UNL1       -0.0269
     19 C           8.9282    0.5000    0.0000 C.3     1  UNL1       -0.0306
     20 C           9.8039   -2.0034    0.0000 C.3     1  UNL1       -0.0084
     21 C           8.9282   -2.5000    0.0000 C.3     1  UNL1        0.1403
     22 C           8.0622    1.0000    0.0000 C.3     1  UNL1       -0.0511
     23 C           5.4641   -3.5000    0.0000 C.3     1  UNL1       -0.0526
     24 C           4.5981    4.0000    0.0000 C.2     1  UNL1        0.3074
     25 C           8.0622    2.0000    0.0000 C.3     1  UNL1       -0.0530
     26 C           5.4641    3.5000    0.0000 C.3     1  UNL1        0.0449
     27 C           7.1962    2.5000    0.0000 C.3     1  UNL1       -0.0530
     28 C           8.0622   -2.0000    0.0000 C.2     1  UNL1        0.0509
     29 C           6.3301    4.0000    0.0000 C.3     1  UNL1       -0.0430
     30 C           7.1962    3.5000    0.0000 C.3     1  UNL1       -0.0526
     31 C           6.3301   -4.0000    0.0000 C.3     1  UNL1       -0.0430
     32 C           7.1962   -3.5000    0.0000 C.3     1  UNL1        0.0450
     33 C           7.1962   -2.5000    0.0000 C.3     1  UNL1       -0.0231
     34 C           8.0622   -4.0000    0.0000 C.2     1  UNL1        0.3077
     35 H           4.2690    0.1900    0.0000 H       1  UNL1        0.0460
     36 H           2.3291    1.6900    0.0000 H       1  UNL1        0.0494
     37 H           4.8101    0.4174    0.0000 H       1  UNL1        0.0281
     38 H           5.2087    1.1077    0.0000 H       1  UNL1        0.0281
     39 H           4.2690    2.8100    0.0000 H       1  UNL1        0.0749
     40 H           5.2087    1.8923    0.0000 H       1  UNL1        0.0302
     41 H           4.8101    2.5826    0.0000 H       1  UNL1        0.0302
     42 H           2.3291    0.6900    0.0000 H       1  UNL1        0.1226
     43 H           3.1215   -0.3923    0.0000 H       1  UNL1        0.0280
     44 H           3.5200   -1.0826    0.0000 H       1  UNL1        0.0280
     45 H           5.2087   -1.1077    0.0000 H       1  UNL1        0.0266
     46 H           4.8101   -0.4174    0.0000 H       1  UNL1        0.0266
     47 H           2.3100    3.0369    0.0000 H       1  UNL1        0.0246
     48 H           1.4631    2.8100    0.0000 H       1  UNL1        0.0246
     49 H           1.6900    1.9631    0.0000 H       1  UNL1        0.0246
     50 H           3.9875   -1.8923    0.0000 H       1  UNL1        0.0265
     51 H           4.3860   -2.5826    0.0000 H       1  UNL1        0.0265
     52 H           9.4639   -0.1879    0.0000 H       1  UNL1        0.0544
     53 H           6.0747   -2.6077    0.0000 H       1  UNL1        0.0265
     54 H           5.6762   -1.9174    0.0000 H       1  UNL1        0.0265
     55 H          10.4148   -1.1027    0.0000 H       1  UNL1        0.0287
     56 H          10.0130   -0.4129    0.0000 H       1  UNL1        0.0287
     57 H           9.5388    0.3923    0.0000 H       1  UNL1        0.0286
     58 H           9.1403    1.0826    0.0000 H       1  UNL1        0.0286
     59 H          10.0130   -2.5871    0.0000 H       1  UNL1        0.0305
     60 H          10.4148   -1.8973    0.0000 H       1  UNL1        0.0305
     61 H           9.4639   -2.8121    0.0000 H       1  UNL1        0.0797
     62 H           7.4516    1.1077    0.0000 H       1  UNL1        0.0266
     63 H           7.8501    0.4174    0.0000 H       1  UNL1        0.0266
     64 H           4.8535   -3.3923    0.0000 H       1  UNL1        0.0265
     65 H           5.2520   -4.0826    0.0000 H       1  UNL1        0.0265
     66 H           8.6728    1.8923    0.0000 H       1  UNL1        0.0265
     67 H           8.2742    2.5826    0.0000 H       1  UNL1        0.0265
     68 H           5.0656    3.0250    0.0000 H       1  UNL1        0.0377
     69 H           5.8626    3.0250    0.0000 H       1  UNL1        0.0377
     70 H           6.5856    2.6077    0.0000 H       1  UNL1        0.0265
     71 H           6.9841    1.9174    0.0000 H       1  UNL1        0.0265
     72 H           6.7287    4.4750    0.0000 H       1  UNL1        0.0270
     73 H           5.9316    4.4750    0.0000 H       1  UNL1        0.0270
     74 H           7.8067    3.3923    0.0000 H       1  UNL1        0.0265
     75 H           7.4082    4.0826    0.0000 H       1  UNL1        0.0265
     76 H           5.9316   -4.4750    0.0000 H       1  UNL1        0.0270
     77 H           6.7287   -4.4750    0.0000 H       1  UNL1        0.0270
     78 H           7.5947   -3.0250    0.0000 H       1  UNL1        0.0377
     79 H           6.7976   -3.0250    0.0000 H       1  UNL1        0.0377
     80 H           6.8862   -1.9631    0.0000 H       1  UNL1        0.0290
     81 H           6.6592   -2.8100    0.0000 H       1  UNL1        0.0290
     82 H           7.5062   -3.0369    0.0000 H       1  UNL1        0.0290
@<TRIPOS>BOND
     1     1    10    1
     2     1    24    1
     3     2    21    1
     4     2    34    1
     5     3    24    2
     6     4    34    2
     7     5     7    1
     8     5     8    1
     9     5    42    1
    10     6    16    1
    11     6    28    2
    12     7     9    1
    13     7    12    1
    14     7    35    1
    15     8    10    1
    16     8    14    1
    17     8    36    1
    18     9    11    1
    19     9    37    1
    20     9    38    1
    21    10    11    1
    22    10    39    1
    23    11    40    1
    24    11    41    1
    25    12    13    1
    26    12    43    1
    27    12    44    1
    28    13    15    1
    29    13    45    1
    30    13    46    1
    31    14    47    1
    32    14    48    1
    33    14    49    1
    34    15    17    1
    35    15    50    1
    36    15    51    1
    37    16    18    1
    38    16    19    1
    39    16    52    1
    40    17    23    1
    41    17    53    1
    42    17    54    1
    43    18    20    1
    44    18    55    1
    45    18    56    1
    46    19    22    1
    47    19    57    1
    48    19    58    1
    49    20    21    1
    50    20    59    1
    51    20    60    1
    52    21    28    1
    53    21    61    1
    54    22    25    1
    55    22    62    1
    56    22    63    1
    57    23    31    1
    58    23    64    1
    59    23    65    1
    60    24    26    1
    61    25    27    1
    62    25    66    1
    63    25    67    1
    64    26    29    1
    65    26    68    1
    66    26    69    1
    67    27    30    1
    68    27    70    1
    69    27    71    1
    70    28    33    1
    71    29    30    1
    72    29    72    1
    73    29    73    1
    74    30    74    1
    75    30    75    1
    76    31    32    1
    77    31    76    1
    78    31    77    1
    79    32    34    1
    80    32    78    1
    81    32    79    1
    82    33    80    1
    83    33    81    1
    84    33    82    1
