@<TRIPOS>MOLECULE
IMPHY003744
 72 76 0 0 0
SMALL
GASTEIGER

@<TRIPOS>ATOM
      1 O           7.8003   -2.4050    0.0000 O.3     1  UNL1       -0.3402
      2 O           6.0682   -2.4050    0.0000 O.3     1  UNL1       -0.3405
      3 O           6.9343    0.0950    0.0000 O.3     1  UNL1       -0.3338
      4 O           9.5323   -1.4050    0.0000 O.3     1  UNL1       -0.3863
      5 O           7.8003   -4.4050    0.0000 O.3     1  UNL1       -0.3841
      6 O           7.8003    1.5950    0.0000 O.3     1  UNL1       -0.4532
      7 O           9.5323    0.5950    0.0000 O.3     1  UNL1       -0.3829
      8 O           6.0682   -5.4050    0.0000 O.3     1  UNL1       -0.3864
      9 O           4.3362   -4.4050    0.0000 O.3     1  UNL1       -0.3865
     10 O           3.4702   -2.9050    0.0000 O.3     1  UNL1       -0.3924
     11 O           6.0682    3.5950    0.0000 O.2     1  UNL1       -0.4507
     12 O           6.0682    0.5950    0.0000 O.2     1  UNL1       -0.2830
     13 O           4.3198    0.5604    0.0000 O.3     1  UNL1       -0.5058
     14 O           2.5381    3.6192    0.0000 O.3     1  UNL1       -0.5065
     15 O          10.3984    5.0950    0.0000 O.3     1  UNL1       -0.5068
     16 C           7.8003   -1.4050    0.0000 C.3     1  UNL1        0.1161
     17 C           8.6663   -0.9050    0.0000 C.3     1  UNL1        0.1155
     18 C           6.9343   -0.9050    0.0000 C.3     1  UNL1        0.0887
     19 C           6.9343   -2.9050    0.0000 C.3     1  UNL1        0.1884
     20 C           6.9343   -3.9050    0.0000 C.3     1  UNL1        0.1341
     21 C           8.6663    0.0950    0.0000 C.3     1  UNL1        0.1454
     22 C           6.0682   -4.4050    0.0000 C.3     1  UNL1        0.1141
     23 C           5.2022   -3.9050    0.0000 C.3     1  UNL1        0.1119
     24 C           5.2022   -2.9050    0.0000 C.3     1  UNL1        0.1130
     25 C           7.8003    0.5950    0.0000 C.3     1  UNL1        0.2311
     26 C           6.0682   -1.4050    0.0000 C.3     1  UNL1       -0.0360
     27 C           4.3362   -2.4050    0.0000 C.3     1  UNL1        0.0730
     28 C           6.9343    2.0950    0.0000 C.ar    1  UNL1        0.2138
     29 C           6.9343    3.0950    0.0000 C.ar    1  UNL1        0.1809
     30 C           6.0682    1.5950    0.0000 C.ar    1  UNL1        0.2382
     31 C           5.2022    2.0950    0.0000 C.ar    1  UNL1        0.1092
     32 C           7.8003    3.5950    0.0000 C.ar    1  UNL1        0.0213
     33 C           5.2022    3.0950    0.0000 C.ar    1  UNL1        0.1465
     34 C           4.3083    1.5603    0.0000 C.ar    1  UNL1        0.1348
     35 C           4.3083    3.6297    0.0000 C.ar    1  UNL1        0.0231
     36 C           7.8003    4.5950    0.0000 C.ar    1  UNL1       -0.0475
     37 C           8.6663    3.0950    0.0000 C.ar    1  UNL1       -0.0475
     38 C           3.4022    2.0742    0.0000 C.ar    1  UNL1        0.0223
     39 C           3.4022    3.1158    0.0000 C.ar    1  UNL1        0.1239
     40 C           8.6663    5.0950    0.0000 C.ar    1  UNL1       -0.0195
     41 C           9.5323    3.5950    0.0000 C.ar    1  UNL1       -0.0195
     42 C           9.5323    4.5950    0.0000 C.ar    1  UNL1        0.1169
     43 H           8.3372   -1.7150    0.0000 H       1  UNL1        0.0650
     44 H           9.2033   -0.5950    0.0000 H       1  UNL1        0.0648
     45 H           6.3973   -0.5950    0.0000 H       1  UNL1        0.0621
     46 H           6.9343   -2.2850    0.0000 H       1  UNL1        0.0938
     47 H           7.4712   -3.5950    0.0000 H       1  UNL1        0.0671
     48 H           8.6663    0.7150    0.0000 H       1  UNL1        0.0683
     49 H           6.6052   -4.7150    0.0000 H       1  UNL1        0.0648
     50 H           4.6653   -3.5950    0.0000 H       1  UNL1        0.0647
     51 H           5.2022   -2.2850    0.0000 H       1  UNL1        0.0647
     52 H           7.2634    0.9050    0.0000 H       1  UNL1        0.1084
     53 H           5.7582   -0.8681    0.0000 H       1  UNL1        0.0255
     54 H           5.5313   -1.7150    0.0000 H       1  UNL1        0.0255
     55 H           6.3783   -1.9419    0.0000 H       1  UNL1        0.0255
     56 H           4.7347   -1.9300    0.0000 H       1  UNL1        0.0584
     57 H           3.9377   -1.9300    0.0000 H       1  UNL1        0.0584
     58 H          10.0693   -1.0950    0.0000 H       1  UNL1        0.2100
     59 H           8.3372   -4.0950    0.0000 H       1  UNL1        0.2101
     60 H           9.5323    1.2150    0.0000 H       1  UNL1        0.2102
     61 H           6.6052   -5.7150    0.0000 H       1  UNL1        0.2100
     62 H           4.3362   -5.0250    0.0000 H       1  UNL1        0.2100
     63 H           2.9332   -2.5950    0.0000 H       1  UNL1        0.2095
     64 H           4.3154    4.2496    0.0000 H       1  UNL1        0.0691
     65 H           7.2634    4.9050    0.0000 H       1  UNL1        0.0626
     66 H           8.6663    2.4750    0.0000 H       1  UNL1        0.0626
     67 H           2.8665    1.7621    0.0000 H       1  UNL1        0.0691
     68 H           8.6663    5.7150    0.0000 H       1  UNL1        0.0654
     69 H          10.0693    3.2850    0.0000 H       1  UNL1        0.0654
     70 H           3.7865    0.2442    0.0000 H       1  UNL1        0.2922
     71 H           2.0000    3.3112    0.0000 H       1  UNL1        0.2921
     72 H          10.3984    5.7150    0.0000 H       1  UNL1        0.2921
@<TRIPOS>BOND
     1    16     1    1
     2    19     1    1
     3     2    19    1
     4     2    24    1
     5     3    18    1
     6     3    25    1
     7    17     4    1
     8     4    58    1
     9    20     5    1
    10     5    59    1
    11    25     6    1
    12     6    28    1
    13    21     7    1
    14     7    60    1
    15    22     8    1
    16     8    61    1
    17    23     9    1
    18     9    62    1
    19    10    27    1
    20    10    63    1
    21    11    29   ar
    22    11    33   ar
    23    12    30    2
    24    13    34    1
    25    13    70    1
    26    14    39    1
    27    14    71    1
    28    15    42    1
    29    15    72    1
    30    16    17    1
    31    16    18    1
    32    16    43    1
    33    17    21    1
    34    17    44    1
    35    18    26    1
    36    18    45    1
    37    19    20    1
    38    19    46    1
    39    20    22    1
    40    20    47    1
    41    21    25    1
    42    21    48    1
    43    22    23    1
    44    22    49    1
    45    23    24    1
    46    23    50    1
    47    24    27    1
    48    24    51    1
    49    25    52    1
    50    26    53    1
    51    26    54    1
    52    26    55    1
    53    27    56    1
    54    27    57    1
    55    28    29   ar
    56    28    30   ar
    57    29    32    1
    58    30    31   ar
    59    31    33   ar
    60    31    34   ar
    61    32    36   ar
    62    32    37   ar
    63    33    35   ar
    64    34    38   ar
    65    35    39   ar
    66    35    64    1
    67    36    40   ar
    68    36    65    1
    69    37    41   ar
    70    37    66    1
    71    38    39   ar
    72    38    67    1
    73    40    42   ar
    74    40    68    1
    75    41    42   ar
    76    41    69    1
