@<TRIPOS>MOLECULE
IMPHY009981
 40 39 0 0 0
SMALL
GASTEIGER

@<TRIPOS>ATOM
      1 O           8.9282    0.2500    0.0000 O.3     1  UNL1       -0.4603
      2 O           9.7942   -1.2500    0.0000 O.2     1  UNL1       -0.2505
      3 C           5.4641    0.2500    0.0000 C.3     1  UNL1       -0.0285
      4 C           4.5981   -0.2500    0.0000 C.3     1  UNL1       -0.0308
      5 C           6.3301   -0.2500    0.0000 C.2     1  UNL1       -0.0731
      6 C          10.6603    0.2500    0.0000 C.3     1  UNL1        0.0508
      7 C           7.1962    0.2500    0.0000 C.2     1  UNL1       -0.0480
      8 C           3.7320    0.2500    0.0000 C.2     1  UNL1       -0.0850
      9 C           8.0622   -0.2500    0.0000 C.3     1  UNL1        0.1109
     10 C           6.3301   -1.2500    0.0000 C.3     1  UNL1       -0.0437
     11 C           2.8660   -0.2500    0.0000 C.2     1  UNL1       -0.0796
     12 C           9.7942   -0.2500    0.0000 C.2     1  UNL1        0.3100
     13 C          11.5263   -0.2500    0.0000 C.3     1  UNL1       -0.0525
     14 C          10.6603    1.2500    0.0000 C.3     1  UNL1       -0.0525
     15 C           2.0000    0.2500    0.0000 C.3     1  UNL1       -0.0440
     16 C           2.8660   -1.2500    0.0000 C.3     1  UNL1       -0.0440
     17 H           5.8626    0.7249    0.0000 H       1  UNL1        0.0313
     18 H           5.0656    0.7249    0.0000 H       1  UNL1        0.0313
     19 H           4.1996   -0.7249    0.0000 H       1  UNL1        0.0310
     20 H           4.9966   -0.7249    0.0000 H       1  UNL1        0.0310
     21 H          11.1972    0.5600    0.0000 H       1  UNL1        0.0408
     22 H           7.1962    0.8700    0.0000 H       1  UNL1        0.0605
     23 H           3.7320    0.8700    0.0000 H       1  UNL1        0.0572
     24 H           7.6636   -0.7249    0.0000 H       1  UNL1        0.0743
     25 H           8.4607   -0.7249    0.0000 H       1  UNL1        0.0743
     26 H           5.7101   -1.2500    0.0000 H       1  UNL1        0.0274
     27 H           6.3301   -1.8700    0.0000 H       1  UNL1        0.0274
     28 H           6.9501   -1.2500    0.0000 H       1  UNL1        0.0274
     29 H          11.2803    1.2500    0.0000 H       1  UNL1        0.0237
     30 H          10.6603    1.8700    0.0000 H       1  UNL1        0.0237
     31 H          10.0403    1.2500    0.0000 H       1  UNL1        0.0237
     32 H          11.2163   -0.7869    0.0000 H       1  UNL1        0.0237
     33 H          12.0632   -0.5600    0.0000 H       1  UNL1        0.0237
     34 H          11.8363    0.2869    0.0000 H       1  UNL1        0.0237
     35 H           2.3100    0.7869    0.0000 H       1  UNL1        0.0274
     36 H           2.2460   -1.2500    0.0000 H       1  UNL1        0.0274
     37 H           2.8660   -1.8700    0.0000 H       1  UNL1        0.0274
     38 H           3.4860   -1.2500    0.0000 H       1  UNL1        0.0274
     39 H           1.4631    0.5600    0.0000 H       1  UNL1        0.0274
     40 H           1.6900   -0.2869    0.0000 H       1  UNL1        0.0274
@<TRIPOS>BOND
     1     1     9    1
     2     1    12    1
     3     2    12    2
     4     3     4    1
     5     3     5    1
     6     3    17    1
     7     3    18    1
     8     4     8    1
     9     4    19    1
    10     4    20    1
    11     5     7    2
    12     5    10    1
    13     6    12    1
    14     6    13    1
    15     6    14    1
    16     6    21    1
    17     7     9    1
    18     7    22    1
    19     8    11    2
    20     8    23    1
    21     9    24    1
    22     9    25    1
    23    10    26    1
    24    10    27    1
    25    10    28    1
    26    11    15    1
    27    11    16    1
    28    13    32    1
    29    13    33    1
    30    13    34    1
    31    14    29    1
    32    14    30    1
    33    14    31    1
    34    15    35    1
    35    15    39    1
    36    15    40    1
    37    16    36    1
    38    16    37    1
    39    16    38    1
