@<TRIPOS>MOLECULE
IMPHY011899
 54 57 0 0 0
SMALL
GASTEIGER

@<TRIPOS>ATOM
      1 O           3.3770   -2.7380    0.0000 O.2     1  UNL1       -0.4919
      2 O           2.3440   -0.8222    0.0000 O.2     1  UNL1       -0.2882
      3 O           6.7878   -1.0143    0.0000 O.3     1  UNL1       -0.4907
      4 O           8.7497   -0.4257    0.0000 O.3     1  UNL1       -0.4885
      5 O           9.2055    1.5712    0.0000 O.3     1  UNL1       -0.4913
      6 O           3.6551    3.5642    0.0000 O.2     1  UNL1       -0.2761
      7 N           3.2697    1.8756    0.0000 N.am    1  UNL1       -0.3090
      8 C           4.0259   -0.2285    0.0000 C.3     1  UNL1        0.0588
      9 C           4.9344   -0.6660    0.0000 C.3     1  UNL1        0.0205
     10 C           4.4671    0.6781    0.0000 C.2     1  UNL1       -0.0335
     11 C           5.3681    0.2442    0.0000 C.2     1  UNL1       -0.0267
     12 C           4.2446    1.6531    0.0000 C.3     1  UNL1        0.0459
     13 C           3.3351   -0.9548    0.0000 C.2     1  UNL1        0.2049
     14 C           6.2691    0.6781    0.0000 C.ar    1  UNL1        0.0275
     15 C           4.7972   -1.6589    0.0000 C.2     1  UNL1       -0.0304
     16 C           4.8681    2.4349    0.0000 C.3     1  UNL1       -0.0266
     17 C           5.8681    2.4349    0.0000 C.3     1  UNL1       -0.0249
     18 C           3.8109   -1.8370    0.0000 C.2     1  UNL1        0.1596
     19 C           6.4916    1.6531    0.0000 C.ar    1  UNL1       -0.0327
     20 C           7.0216   -0.0420    0.0000 C.ar    1  UNL1        0.1728
     21 C           7.4821    1.9754    0.0000 C.ar    1  UNL1       -0.0123
     22 C           8.0193    0.2573    0.0000 C.ar    1  UNL1        0.2041
     23 C           8.2511    1.2728    0.0000 C.ar    1  UNL1        0.1655
     24 C           2.9749    2.8312    0.0000 C.2     1  UNL1        0.2104
     25 C           3.9403   -3.5642    0.0000 C.3     1  UNL1        0.0789
     26 C           2.0000    3.0537    0.0000 C.3     1  UNL1        0.0122
     27 C           7.5130   -1.7029    0.0000 C.3     1  UNL1        0.0790
     28 C           9.7064   -0.1346    0.0000 C.3     1  UNL1        0.0791
     29 C           9.4243    2.5470    0.0000 C.3     1  UNL1        0.0790
     30 H           3.3276    0.2561    0.0000 H       1  UNL1        0.0437
     31 H           5.7486   -0.9098    0.0000 H       1  UNL1        0.0403
     32 H           3.8062    1.2146    0.0000 H       1  UNL1        0.0545
     33 H           5.2446   -2.0881    0.0000 H       1  UNL1        0.0616
     34 H           5.0061    3.0393    0.0000 H       1  UNL1        0.0289
     35 H           4.3095    2.7039    0.0000 H       1  UNL1        0.0289
     36 H           6.4267    2.7039    0.0000 H       1  UNL1        0.0314
     37 H           5.7301    3.0393    0.0000 H       1  UNL1        0.0314
     38 H           2.8480    1.4211    0.0000 H       1  UNL1        0.1493
     39 H           7.6131    2.5814    0.0000 H       1  UNL1        0.0658
     40 H           3.4280   -3.9135    0.0000 H       1  UNL1        0.0660
     41 H           4.2896   -4.0765    0.0000 H       1  UNL1        0.0660
     42 H           4.4526   -3.2149    0.0000 H       1  UNL1        0.0660
     43 H           2.1380    3.6581    0.0000 H       1  UNL1        0.0322
     44 H           1.3955    3.1916    0.0000 H       1  UNL1        0.0322
     45 H           1.8620    2.4492    0.0000 H       1  UNL1        0.0322
     46 H           7.0860   -2.1525    0.0000 H       1  UNL1        0.0660
     47 H           7.9626   -2.1299    0.0000 H       1  UNL1        0.0660
     48 H           7.9399   -1.2534    0.0000 H       1  UNL1        0.0660
     49 H           9.8869   -0.7278    0.0000 H       1  UNL1        0.0660
     50 H          10.2996    0.0458    0.0000 H       1  UNL1        0.0660
     51 H           9.5260    0.4585    0.0000 H       1  UNL1        0.0660
     52 H          10.0293    2.4114    0.0000 H       1  UNL1        0.0660
     53 H           9.5599    3.1520    0.0000 H       1  UNL1        0.0660
     54 H           8.8193    2.6827    0.0000 H       1  UNL1        0.0660
@<TRIPOS>BOND
     1     1    18    1
     2     1    25    1
     3     2    13    2
     4     3    20    1
     5     3    27    1
     6     4    22    1
     7     4    28    1
     8     5    23    1
     9     5    29    1
    10     6    24    2
    11     7    12    1
    12     7    24   am
    13     7    38    1
    14     8     9    1
    15     8    10    1
    16     8    13    1
    17     8    30    1
    18     9    11    1
    19     9    15    1
    20     9    31    1
    21    10    11    2
    22    10    12    1
    23    11    14    1
    24    12    16    1
    25    12    32    1
    26    13    18    1
    27    14    19   ar
    28    14    20   ar
    29    15    18    2
    30    15    33    1
    31    16    17    1
    32    16    34    1
    33    16    35    1
    34    17    19    1
    35    17    36    1
    36    17    37    1
    37    19    21   ar
    38    20    22   ar
    39    21    23   ar
    40    21    39    1
    41    22    23   ar
    42    24    26    1
    43    25    40    1
    44    25    41    1
    45    25    42    1
    46    26    43    1
    47    26    44    1
    48    26    45    1
    49    27    46    1
    50    27    47    1
    51    27    48    1
    52    28    49    1
    53    28    50    1
    54    28    51    1
    55    29    52    1
    56    29    53    1
    57    29    54    1
