@<TRIPOS>MOLECULE
IMPHY011189
 49 52 0 0 0
SMALL
GASTEIGER

@<TRIPOS>ATOM
      1 O           6.3782   -2.2520    0.0000 O.3     1  UNL1       -0.4641
      2 O           4.8837   -1.2814    0.0000 O.2     1  UNL1       -0.2505
      3 O          11.8712   -0.7448    0.0000 O.3     1  UNL1       -0.4526
      4 O          11.8712   -2.3543    0.0000 O.3     1  UNL1       -0.4526
      5 O           2.9511   -0.3849    0.0000 O.3     1  UNL1       -0.4914
      6 O           2.5352    1.5714    0.0000 O.3     1  UNL1       -0.4915
      7 C           7.4609   -1.0496    0.0000 C.3     1  UNL1        0.0105
      8 C           6.5474   -0.6428    0.0000 C.3     1  UNL1        0.0666
      9 C           7.3564   -2.0441    0.0000 C.3     1  UNL1        0.0963
     10 C           8.3269   -0.5496    0.0000 C.3     1  UNL1       -0.0209
     11 C           6.3395    0.3353    0.0000 C.3     1  UNL1       -0.0143
     12 C           5.8782   -1.3860    0.0000 C.2     1  UNL1        0.3109
     13 C           9.1930   -1.0496    0.0000 C.ar    1  UNL1       -0.0433
     14 C           5.3884    0.6444    0.0000 C.ar    1  UNL1       -0.0429
     15 C          10.0590   -0.5496    0.0000 C.ar    1  UNL1       -0.0130
     16 C           9.1930   -2.0496    0.0000 C.ar    1  UNL1       -0.0549
     17 C           4.6453   -0.0248    0.0000 C.ar    1  UNL1       -0.0131
     18 C           5.1805    1.6225    0.0000 C.ar    1  UNL1       -0.0549
     19 C          10.9250   -1.0496    0.0000 C.ar    1  UNL1        0.1665
     20 C          10.0590   -2.5496    0.0000 C.ar    1  UNL1       -0.0159
     21 C          10.9250   -2.0496    0.0000 C.ar    1  UNL1        0.1662
     22 C           3.6942    0.2842    0.0000 C.ar    1  UNL1        0.1617
     23 C           4.2294    1.9315    0.0000 C.ar    1  UNL1       -0.0160
     24 C           3.4863    1.2624    0.0000 C.ar    1  UNL1        0.1615
     25 C          12.4548   -1.5496    0.0000 C.3     1  UNL1        0.2332
     26 C           2.0000   -0.0759    0.0000 C.3     1  UNL1        0.0790
     27 C           2.3273    2.5496    0.0000 C.3     1  UNL1        0.0790
     28 H           7.9809   -1.3872    0.0000 H       1  UNL1        0.0345
     29 H           5.9485   -0.4823    0.0000 H       1  UNL1        0.0420
     30 H           7.4212   -2.6607    0.0000 H       1  UNL1        0.0700
     31 H           7.9764   -2.0441    0.0000 H       1  UNL1        0.0700
     32 H           8.7255   -0.0746    0.0000 H       1  UNL1        0.0317
     33 H           7.9284   -0.0746    0.0000 H       1  UNL1        0.0317
     34 H           6.9591    0.3570    0.0000 H       1  UNL1        0.0321
     35 H           6.4258    0.9493    0.0000 H       1  UNL1        0.0321
     36 H          10.0590    0.0705    0.0000 H       1  UNL1        0.0658
     37 H           8.6560   -2.3596    0.0000 H       1  UNL1        0.0621
     38 H           4.7742   -0.6312    0.0000 H       1  UNL1        0.0658
     39 H           5.6412    2.0374    0.0000 H       1  UNL1        0.0621
     40 H          10.0590   -3.1696    0.0000 H       1  UNL1        0.0655
     41 H           4.1005    2.5380    0.0000 H       1  UNL1        0.0655
     42 H          12.9157   -1.9643    0.0000 H       1  UNL1        0.1166
     43 H          12.9157   -1.1348    0.0000 H       1  UNL1        0.1166
     44 H           2.1916    0.5138    0.0000 H       1  UNL1        0.0660
     45 H           1.4103    0.1157    0.0000 H       1  UNL1        0.0660
     46 H           1.8084   -0.6655    0.0000 H       1  UNL1        0.0660
     47 H           2.9338    2.6785    0.0000 H       1  UNL1        0.0660
     48 H           2.1984    3.1560    0.0000 H       1  UNL1        0.0660
     49 H           1.7209    2.4206    0.0000 H       1  UNL1        0.0660
@<TRIPOS>BOND
     1     1     9    1
     2     1    12    1
     3     2    12    2
     4     3    19    1
     5     3    25    1
     6     4    21    1
     7     4    25    1
     8     5    22    1
     9     5    26    1
    10     6    24    1
    11     6    27    1
    12     7     8    1
    13     7     9    1
    14     7    10    1
    15     7    28    1
    16     8    11    1
    17     8    12    1
    18     8    29    1
    19     9    30    1
    20     9    31    1
    21    10    13    1
    22    10    32    1
    23    10    33    1
    24    11    14    1
    25    11    34    1
    26    11    35    1
    27    13    15   ar
    28    13    16   ar
    29    14    17   ar
    30    14    18   ar
    31    15    19   ar
    32    15    36    1
    33    16    20   ar
    34    16    37    1
    35    17    22   ar
    36    17    38    1
    37    18    23   ar
    38    18    39    1
    39    19    21   ar
    40    20    21   ar
    41    20    40    1
    42    22    24   ar
    43    23    24   ar
    44    23    41    1
    45    25    42    1
    46    25    43    1
    47    26    44    1
    48    26    45    1
    49    26    46    1
    50    27    47    1
    51    27    48    1
    52    27    49    1
