@<TRIPOS>MOLECULE
IMPHY010304
 26 25 0 0 0
SMALL
GASTEIGER

@<TRIPOS>ATOM
      1 O           8.9282    0.6900    0.0000 O.3     1  UNL1       -0.3910
      2 C           4.5981    0.1900    0.0000 C.3     1  UNL1       -0.0313
      3 C           5.4641    0.6900    0.0000 C.3     1  UNL1       -0.0313
      4 C           3.7320    0.6900    0.0000 C.2     1  UNL1       -0.0877
      5 C           2.8660   -0.8100    0.0000 C.3     1  UNL1       -0.0376
      6 C           2.8660    0.1900    0.0000 C.2     1  UNL1       -0.0882
      7 C           6.3301    0.1900    0.0000 C.2     1  UNL1       -0.0855
      8 C           2.0000   -1.3100    0.0000 C.3     1  UNL1       -0.0618
      9 C           7.1962    0.6900    0.0000 C.2     1  UNL1       -0.0629
     10 C           8.0622    0.1900    0.0000 C.3     1  UNL1        0.0624
     11 H           4.1996   -0.2849    0.0000 H       1  UNL1        0.0310
     12 H           4.9966   -0.2849    0.0000 H       1  UNL1        0.0310
     13 H           5.8626    1.1650    0.0000 H       1  UNL1        0.0310
     14 H           5.0656    1.1650    0.0000 H       1  UNL1        0.0310
     15 H           3.7320    1.3100    0.0000 H       1  UNL1        0.0569
     16 H           3.0781   -1.3926    0.0000 H       1  UNL1        0.0305
     17 H           3.4766   -0.7023    0.0000 H       1  UNL1        0.0305
     18 H           2.3291    0.5000    0.0000 H       1  UNL1        0.0569
     19 H           6.3301   -0.4300    0.0000 H       1  UNL1        0.0570
     20 H           1.6900   -0.7731    0.0000 H       1  UNL1        0.0233
     21 H           1.4631   -1.6200    0.0000 H       1  UNL1        0.0233
     22 H           2.3100   -1.8469    0.0000 H       1  UNL1        0.0233
     23 H           7.1962    1.3100    0.0000 H       1  UNL1        0.0591
     24 H           7.6636   -0.2849    0.0000 H       1  UNL1        0.0601
     25 H           8.4607   -0.2849    0.0000 H       1  UNL1        0.0601
     26 H           9.4651    0.3800    0.0000 H       1  UNL1        0.2098
@<TRIPOS>BOND
     1     1    10    1
     2     1    26    1
     3     2     3    1
     4     2     4    1
     5     2    11    1
     6     2    12    1
     7     3     7    1
     8     3    13    1
     9     3    14    1
    10     4     6    2
    11     4    15    1
    12     5     6    1
    13     5     8    1
    14     5    16    1
    15     5    17    1
    16     6    18    1
    17     7     9    2
    18     7    19    1
    19     8    20    1
    20     8    21    1
    21     8    22    1
    22     9    10    1
    23     9    23    1
    24    10    24    1
    25    10    25    1
