@<TRIPOS>MOLECULE
IMPHY004848
 27 30 0 0 0
SMALL
GASTEIGER

@<TRIPOS>ATOM
      1 O           6.2392    2.2280    0.0000 O.3     1  UNL1       -0.4526
      2 O           4.8454    3.0327    0.0000 O.3     1  UNL1       -0.4526
      3 O           2.0000    0.5641    0.0000 O.2     1  UNL1       -0.2672
      4 N           2.8522   -0.9875    0.0000 N.ar    1  UNL1       -0.3216
      5 C           4.6362    0.0609    0.0000 C.ar    1  UNL1        0.0001
      6 C           3.7702    0.5609    0.0000 C.ar    1  UNL1        0.0507
      7 C           4.6523   -0.9806    0.0000 C.ar    1  UNL1        0.0064
      8 C           3.7542   -1.5083    0.0000 C.ar    1  UNL1        0.0498
      9 C           5.5022    0.5609    0.0000 C.ar    1  UNL1       -0.0076
     10 C           5.5022    1.5609    0.0000 C.ar    1  UNL1        0.1668
     11 C           4.6362    2.0609    0.0000 C.ar    1  UNL1        0.1670
     12 C           3.7702    1.5609    0.0000 C.ar    1  UNL1       -0.0032
     13 C           2.8602    0.0541    0.0000 C.ar    1  UNL1        0.2570
     14 C           5.6042   -1.5012    0.0000 C.ar    1  UNL1       -0.0520
     15 C           3.7459   -2.5933    0.0000 C.ar    1  UNL1       -0.0377
     16 C           5.8341    3.1358    0.0000 C.3     1  UNL1        0.2332
     17 C           5.6209   -2.5861    0.0000 C.ar    1  UNL1       -0.0611
     18 C           4.6855   -3.1358    0.0000 C.ar    1  UNL1       -0.0598
     19 H           6.0392    0.2509    0.0000 H       1  UNL1        0.0662
     20 H           3.2332    1.8709    0.0000 H       1  UNL1        0.0663
     21 H           2.3140   -1.2954    0.0000 H       1  UNL1        0.1689
     22 H           6.1351   -1.1809    0.0000 H       1  UNL1        0.0624
     23 H           3.2077   -2.9012    0.0000 H       1  UNL1        0.0638
     24 H           6.4237    3.3276    0.0000 H       1  UNL1        0.1166
     25 H           5.7054    3.7423    0.0000 H       1  UNL1        0.1166
     26 H           6.1614   -2.8898    0.0000 H       1  UNL1        0.0618
     27 H           4.6879   -3.7558    0.0000 H       1  UNL1        0.0618
@<TRIPOS>BOND
     1     1    10    1
     2     1    16    1
     3     2    11    1
     4     2    16    1
     5     3    13    2
     6     4     8   ar
     7     4    13   ar
     8     4    21    1
     9     5     6   ar
    10     5     7   ar
    11     5     9   ar
    12     6    12   ar
    13     6    13   ar
    14     7     8   ar
    15     7    14   ar
    16     8    15   ar
    17     9    10   ar
    18     9    19    1
    19    10    11   ar
    20    11    12   ar
    21    12    20    1
    22    14    17   ar
    23    14    22    1
    24    15    18   ar
    25    15    23    1
    26    16    24    1
    27    16    25    1
    28    17    18   ar
    29    17    26    1
    30    18    27    1
