@<TRIPOS>MOLECULE
IMPHY013128
 53 55 0 0 0
SMALL
GASTEIGER

@<TRIPOS>ATOM
      1 O           6.3580   -0.2699    0.0000 O.2     1  UNL1       -0.4505
      2 O           4.5981   -1.2352    0.0000 O.3     1  UNL1       -0.4884
      3 O           2.8660   -0.2352    0.0000 O.3     1  UNL1       -0.4883
      4 O           2.8660    1.7648    0.0000 O.3     1  UNL1       -0.4884
      5 O           7.2564   -1.7560    0.0000 O.3     1  UNL1       -0.4906
      6 O           4.5981    2.7648    0.0000 O.3     1  UNL1       -0.5027
      7 O          10.7282    0.2306    0.0000 O.3     1  UNL1       -0.4913
      8 O          10.7205   -1.7694    0.0000 O.3     1  UNL1       -0.4884
      9 O           6.3465    2.7994    0.0000 O.2     1  UNL1       -0.2869
     10 O           8.9846   -2.7627    0.0000 O.3     1  UNL1       -0.5008
     11 C           5.4641    1.2648    0.0000 C.ar    1  UNL1        0.1128
     12 C           5.4641    0.2648    0.0000 C.ar    1  UNL1        0.1881
     13 C           7.2641    0.2440    0.0000 C.ar    1  UNL1        0.1431
     14 C           8.1282   -0.2594    0.0000 C.ar    1  UNL1        0.0663
     15 C           4.5981   -0.2352    0.0000 C.ar    1  UNL1        0.2088
     16 C           4.5981    1.7648    0.0000 C.ar    1  UNL1        0.1770
     17 C           6.3580    1.7994    0.0000 C.ar    1  UNL1        0.1969
     18 C           7.2641    1.2856    0.0000 C.ar    1  UNL1        0.0289
     19 C           3.7320    0.2648    0.0000 C.ar    1  UNL1        0.2110
     20 C           3.7320    1.2648    0.0000 C.ar    1  UNL1        0.2080
     21 C           8.1244   -1.2594    0.0000 C.ar    1  UNL1        0.1759
     22 C           8.9962    0.2373    0.0000 C.ar    1  UNL1       -0.0019
     23 C           8.9884   -1.7627    0.0000 C.ar    1  UNL1        0.2055
     24 C           9.8602   -0.2661    0.0000 C.ar    1  UNL1        0.1661
     25 C           9.8564   -1.2660    0.0000 C.ar    1  UNL1        0.2071
     26 C           3.7320   -1.7352    0.0000 C.3     1  UNL1        0.0791
     27 C           2.0000    0.2648    0.0000 C.3     1  UNL1        0.0791
     28 C           2.0000    1.2648    0.0000 C.3     1  UNL1        0.0791
     29 C           7.2526   -2.7560    0.0000 C.3     1  UNL1        0.0790
     30 C          10.7320    1.2306    0.0000 C.3     1  UNL1        0.0790
     31 C          11.5884   -1.2727    0.0000 C.3     1  UNL1        0.0791
     32 H           7.7998    1.5976    0.0000 H       1  UNL1        0.0693
     33 H           8.9985    0.8573    0.0000 H       1  UNL1        0.0663
     34 H           4.0611    3.0748    0.0000 H       1  UNL1        0.2923
     35 H           3.4220   -1.1983    0.0000 H       1  UNL1        0.0660
     36 H           3.1951   -2.0452    0.0000 H       1  UNL1        0.0660
     37 H           4.0420   -2.2722    0.0000 H       1  UNL1        0.0660
     38 H           9.5203   -3.0748    0.0000 H       1  UNL1        0.2924
     39 H           2.3100    0.8017    0.0000 H       1  UNL1        0.0660
     40 H           1.4631    0.5748    0.0000 H       1  UNL1        0.0660
     41 H           1.6900   -0.2722    0.0000 H       1  UNL1        0.0660
     42 H           1.6900    1.8017    0.0000 H       1  UNL1        0.0660
     43 H           1.4631    0.9548    0.0000 H       1  UNL1        0.0660
     44 H           2.3100    0.7278    0.0000 H       1  UNL1        0.0660
     45 H           6.6326   -2.7536    0.0000 H       1  UNL1        0.0660
     46 H           7.2502   -3.3760    0.0000 H       1  UNL1        0.0660
     47 H           7.8725   -2.7584    0.0000 H       1  UNL1        0.0660
     48 H          11.3520    1.2282    0.0000 H       1  UNL1        0.0660
     49 H          10.7344    1.8506    0.0000 H       1  UNL1        0.0660
     50 H          10.1120    1.2330    0.0000 H       1  UNL1        0.0660
     51 H          11.8964   -1.8108    0.0000 H       1  UNL1        0.0660
     52 H          12.1266   -0.9648    0.0000 H       1  UNL1        0.0660
     53 H          11.2805   -0.7346    0.0000 H       1  UNL1        0.0660
@<TRIPOS>BOND
     1     1    12   ar
     2     1    13   ar
     3     2    15    1
     4     2    26    1
     5     3    19    1
     6     3    27    1
     7     4    20    1
     8     4    28    1
     9     5    21    1
    10     5    29    1
    11     6    16    1
    12     6    34    1
    13     7    24    1
    14     7    30    1
    15     8    25    1
    16     8    31    1
    17     9    17    2
    18    10    23    1
    19    10    38    1
    20    11    12   ar
    21    11    16   ar
    22    11    17   ar
    23    12    15   ar
    24    13    14    1
    25    13    18   ar
    26    14    21   ar
    27    14    22   ar
    28    15    19   ar
    29    16    20   ar
    30    17    18   ar
    31    18    32    1
    32    19    20   ar
    33    21    23   ar
    34    22    24   ar
    35    22    33    1
    36    23    25   ar
    37    24    25   ar
    38    26    35    1
    39    26    36    1
    40    26    37    1
    41    27    39    1
    42    27    40    1
    43    27    41    1
    44    28    42    1
    45    28    43    1
    46    28    44    1
    47    29    45    1
    48    29    46    1
    49    29    47    1
    50    30    48    1
    51    30    49    1
    52    30    50    1
    53    31    51    1
    54    31    52    1
    55    31    53    1
