@<TRIPOS>MOLECULE
IMPHY005831
 30 32 0 0 0
SMALL
GASTEIGER

@<TRIPOS>ATOM
      1 O           3.7817    1.2810    0.0000 O.3     1  UNL1       -0.4944
      2 O           4.6423    1.7778    0.0000 O.3     1  UNL1       -0.5061
      3 O           2.0000   -1.7778    0.0000 O.3     1  UNL1       -0.5066
      4 C           4.6641   -0.2536    0.0000 C.ar    1  UNL1        0.0352
      5 C           5.5301    0.2464    0.0000 C.ar    1  UNL1        0.0347
      6 C           4.6641   -1.2536    0.0000 C.ar    1  UNL1       -0.0102
      7 C           6.3961   -0.2536    0.0000 C.ar    1  UNL1       -0.0137
      8 C           3.7702    0.2810    0.0000 C.ar    1  UNL1        0.1319
      9 C           5.5301   -1.7536    0.0000 C.ar    1  UNL1       -0.0532
     10 C           6.3961   -1.2536    0.0000 C.ar    1  UNL1       -0.0533
     11 C           5.5141    1.2879    0.0000 C.ar    1  UNL1        0.1252
     12 C           3.7702   -1.7883    0.0000 C.ar    1  UNL1       -0.0122
     13 C           7.3062    0.2532    0.0000 C.ar    1  UNL1       -0.0538
     14 C           2.8641   -0.2328    0.0000 C.ar    1  UNL1        0.0222
     15 C           2.8641   -1.2744    0.0000 C.ar    1  UNL1        0.1209
     16 C           6.4121    1.8156    0.0000 C.ar    1  UNL1       -0.0195
     17 C           7.3142    1.2948    0.0000 C.ar    1  UNL1       -0.0577
     18 C           2.9215    1.7909    0.0000 C.3     1  UNL1        0.0788
     19 H           5.5301   -2.3736    0.0000 H       1  UNL1        0.0624
     20 H           6.9331   -1.5636    0.0000 H       1  UNL1        0.0624
     21 H           3.7773   -2.4083    0.0000 H       1  UNL1        0.0660
     22 H           7.8395   -0.0630    0.0000 H       1  UNL1        0.0624
     23 H           2.3284    0.0792    0.0000 H       1  UNL1        0.0691
     24 H           6.4097    2.4356    0.0000 H       1  UNL1        0.0654
     25 H           7.8523    1.6027    0.0000 H       1  UNL1        0.0619
     26 H           4.6352    2.3978    0.0000 H       1  UNL1        0.2922
     27 H           3.2377    2.3242    0.0000 H       1  UNL1        0.0660
     28 H           2.3882    2.1071    0.0000 H       1  UNL1        0.0660
     29 H           2.6054    1.2576    0.0000 H       1  UNL1        0.0660
     30 H           2.0024   -2.3978    0.0000 H       1  UNL1        0.2921
@<TRIPOS>BOND
     1     1     8    1
     2     1    18    1
     3     2    11    1
     4     2    26    1
     5     3    15    1
     6     3    30    1
     7     4     5   ar
     8     4     6   ar
     9     4     8   ar
    10     5     7   ar
    11     5    11   ar
    12     6     9   ar
    13     6    12   ar
    14     7    10   ar
    15     7    13   ar
    16     8    14   ar
    17     9    10   ar
    18     9    19    1
    19    10    20    1
    20    11    16   ar
    21    12    15   ar
    22    12    21    1
    23    13    17   ar
    24    13    22    1
    25    14    15   ar
    26    14    23    1
    27    16    17   ar
    28    16    24    1
    29    17    25    1
    30    18    27    1
    31    18    28    1
    32    18    29    1
