@<TRIPOS>MOLECULE
IMPHY017738
 25 25 0 0 0
SMALL
GASTEIGER

@<TRIPOS>ATOM
      1 O           2.8660   -2.0000    0.0000 O.3     1  UNL1       -0.4951
      2 C           2.8660    2.0000    0.0000 C.3     1  UNL1       -0.0215
      3 C           2.8660    1.0000    0.0000 C.ar    1  UNL1       -0.0446
      4 C           3.7320    2.5000    0.0000 C.3     1  UNL1       -0.0587
      5 C           2.0000    2.5000    0.0000 C.3     1  UNL1       -0.0587
      6 C           2.0000    0.5000    0.0000 C.ar    1  UNL1       -0.0549
      7 C           3.7320    0.5000    0.0000 C.ar    1  UNL1       -0.0549
      8 C           2.0000   -0.5000    0.0000 C.ar    1  UNL1       -0.0197
      9 C           3.7320   -0.5000    0.0000 C.ar    1  UNL1       -0.0197
     10 C           2.8660   -1.0000    0.0000 C.ar    1  UNL1        0.1201
     11 C           2.0000   -2.5000    0.0000 C.3     1  UNL1        0.0788
     12 H           2.8660    2.6200    0.0000 H       1  UNL1        0.0343
     13 H           4.0420    1.9631    0.0000 H       1  UNL1        0.0235
     14 H           4.2690    2.8100    0.0000 H       1  UNL1        0.0235
     15 H           3.4220    3.0369    0.0000 H       1  UNL1        0.0235
     16 H           2.3100    3.0369    0.0000 H       1  UNL1        0.0235
     17 H           1.4631    2.8100    0.0000 H       1  UNL1        0.0235
     18 H           1.6900    1.9631    0.0000 H       1  UNL1        0.0235
     19 H           1.4631    0.8100    0.0000 H       1  UNL1        0.0622
     20 H           4.2690    0.8100    0.0000 H       1  UNL1        0.0622
     21 H           1.4631   -0.8100    0.0000 H       1  UNL1        0.0654
     22 H           4.2690   -0.8100    0.0000 H       1  UNL1        0.0654
     23 H           1.6900   -1.9631    0.0000 H       1  UNL1        0.0660
     24 H           1.4631   -2.8100    0.0000 H       1  UNL1        0.0660
     25 H           2.3100   -3.0369    0.0000 H       1  UNL1        0.0660
@<TRIPOS>BOND
     1     1    10    1
     2     1    11    1
     3     2     3    1
     4     2     4    1
     5     2     5    1
     6     2    12    1
     7     3     6   ar
     8     3     7   ar
     9     4    13    1
    10     4    14    1
    11     4    15    1
    12     5    16    1
    13     5    17    1
    14     5    18    1
    15     6     8   ar
    16     6    19    1
    17     7     9   ar
    18     7    20    1
    19     8    10   ar
    20     8    21    1
    21     9    10   ar
    22     9    22    1
    23    11    23    1
    24    11    24    1
    25    11    25    1
