@<TRIPOS>MOLECULE
IMPHY009569
 20 20 0 0 0
SMALL
GASTEIGER

@<TRIPOS>ATOM
      1 O           4.2690    2.0000    0.0000 O.3     1  UNL1       -0.4885
      2 O           2.5369    1.0000    0.0000 O.3     1  UNL1       -0.5032
      3 O           6.0010    1.0000    0.0000 O.3     1  UNL1       -0.5032
      4 O           3.4030   -2.5000    0.0000 O.2     1  UNL1       -0.2957
      5 C           4.2690    1.0000    0.0000 C.ar    1  UNL1        0.2031
      6 C           3.4030    0.5000    0.0000 C.ar    1  UNL1        0.1628
      7 C           5.1350    0.5000    0.0000 C.ar    1  UNL1        0.1628
      8 C           4.2690   -1.0000    0.0000 C.ar    1  UNL1        0.0213
      9 C           3.4030   -0.5000    0.0000 C.ar    1  UNL1       -0.0061
     10 C           5.1350   -0.5000    0.0000 C.ar    1  UNL1       -0.0061
     11 C           4.2690   -2.0000    0.0000 C.2     1  UNL1        0.1504
     12 C           5.1350    2.5000    0.0000 C.3     1  UNL1        0.0791
     13 H           2.8660   -0.8100    0.0000 H       1  UNL1        0.0662
     14 H           5.6720   -0.8100    0.0000 H       1  UNL1        0.0662
     15 H           4.8059   -2.3100    0.0000 H       1  UNL1        0.1081
     16 H           5.4450    1.9631    0.0000 H       1  UNL1        0.0660
     17 H           5.6720    2.8100    0.0000 H       1  UNL1        0.0660
     18 H           4.8250    3.0369    0.0000 H       1  UNL1        0.0660
     19 H           2.0000    0.6900    0.0000 H       1  UNL1        0.2923
     20 H           6.5380    0.6900    0.0000 H       1  UNL1        0.2923
@<TRIPOS>BOND
     1     1     5    1
     2     1    12    1
     3     2     6    1
     4     2    19    1
     5     3     7    1
     6     3    20    1
     7     4    11    2
     8     5     6   ar
     9     5     7   ar
    10     6     9   ar
    11     7    10   ar
    12     8     9   ar
    13     8    10   ar
    14     8    11    1
    15     9    13    1
    16    10    14    1
    17    11    15    1
    18    12    16    1
    19    12    17    1
    20    12    18    1
