@<TRIPOS>MOLECULE
IMPHY001922
 39 43 0 0 0
SMALL
GASTEIGER

@<TRIPOS>ATOM
      1 O           6.4642    0.7953    0.0000 O.3     1  UNL1       -0.4518
      2 O           6.4642    2.4048    0.0000 O.3     1  UNL1       -0.4489
      3 O           4.6520    3.6000    0.0000 O.3     1  UNL1       -0.4907
      4 O           2.0000   -0.9451    0.0000 O.2     1  UNL1       -0.2850
      5 O           4.7052   -3.5967    0.0000 O.3     1  UNL1       -0.4914
      6 O           6.5085   -2.5369    0.0000 O.3     1  UNL1       -0.5033
      7 N           2.0367    1.1214    0.0000 N.ar    1  UNL1       -0.2511
      8 C           4.6520    0.6000    0.0000 C.ar    1  UNL1        0.0385
      9 C           3.7860    1.1000    0.0000 C.ar    1  UNL1        0.0262
     10 C           4.6681   -0.4415    0.0000 C.ar    1  UNL1        0.0009
     11 C           5.5180    1.1000    0.0000 C.ar    1  UNL1        0.1782
     12 C           3.7860    2.1000    0.0000 C.ar    1  UNL1        0.0318
     13 C           2.8760    0.5932    0.0000 C.ar    1  UNL1        0.1194
     14 C           3.7700   -0.9692    0.0000 C.ar    1  UNL1        0.0353
     15 C           5.5180    2.1000    0.0000 C.ar    1  UNL1        0.2088
     16 C           4.6520    2.6000    0.0000 C.ar    1  UNL1        0.1731
     17 C           2.8680   -0.4484    0.0000 C.2     1  UNL1        0.2125
     18 C           5.6200   -0.9621    0.0000 C.ar    1  UNL1       -0.0080
     19 C           2.9278    2.5970    0.0000 C.ar    1  UNL1       -0.0322
     20 C           3.7617   -2.0542    0.0000 C.ar    1  UNL1       -0.0048
     21 C           7.0479    1.6000    0.0000 C.3     1  UNL1        0.2334
     22 C           5.6367   -2.0470    0.0000 C.ar    1  UNL1        0.1591
     23 C           4.7013   -2.5967    0.0000 C.ar    1  UNL1        0.1620
     24 C           2.0623    2.1128    0.0000 C.ar    1  UNL1        0.0291
     25 C           5.5180    4.1000    0.0000 C.3     1  UNL1        0.0790
     26 C           3.8411   -4.1000    0.0000 C.3     1  UNL1        0.0790
     27 H           6.1508   -0.6418    0.0000 H       1  UNL1        0.0661
     28 H           2.9324    3.2169    0.0000 H       1  UNL1        0.0640
     29 H           3.2235   -2.3621    0.0000 H       1  UNL1        0.0663
     30 H           7.5087    1.1853    0.0000 H       1  UNL1        0.1166
     31 H           7.5087    2.0148    0.0000 H       1  UNL1        0.1166
     32 H           1.5316    2.4333    0.0000 H       1  UNL1        0.0830
     33 H           5.8280    3.5631    0.0000 H       1  UNL1        0.0660
     34 H           6.0550    4.4100    0.0000 H       1  UNL1        0.0660
     35 H           5.2080    4.6370    0.0000 H       1  UNL1        0.0660
     36 H           6.5156   -3.1569    0.0000 H       1  UNL1        0.2923
     37 H           3.5290   -3.5643    0.0000 H       1  UNL1        0.0660
     38 H           3.3053   -4.4121    0.0000 H       1  UNL1        0.0660
     39 H           4.1531   -4.6358    0.0000 H       1  UNL1        0.0660
@<TRIPOS>BOND
     1     1    11    1
     2     1    21    1
     3     2    15    1
     4     2    21    1
     5     3    16    1
     6     3    25    1
     7     4    17    2
     8     5    23    1
     9     5    26    1
    10     6    22    1
    11     6    36    1
    12     7    13   ar
    13     7    24   ar
    14     8     9   ar
    15     8    10    1
    16     8    11   ar
    17     9    12   ar
    18     9    13   ar
    19    10    14   ar
    20    10    18   ar
    21    11    15   ar
    22    12    16   ar
    23    12    19   ar
    24    13    17    1
    25    14    17    1
    26    14    20   ar
    27    15    16   ar
    28    18    22   ar
    29    18    27    1
    30    19    24   ar
    31    19    28    1
    32    20    23   ar
    33    20    29    1
    34    21    30    1
    35    21    31    1
    36    22    23   ar
    37    24    32    1
    38    25    33    1
    39    25    34    1
    40    25    35    1
    41    26    37    1
    42    26    38    1
    43    26    39    1
