@<TRIPOS>MOLECULE
IMPHY010329
 122 128 0 0 0
SMALL
GASTEIGER

@<TRIPOS>ATOM
      1 O           7.7331   -1.6941    0.0000 O.3     1  UNL1       -0.3449
      2 O           9.4869    7.5853    0.0000 O.3     1  UNL1       -0.4802
      3 O          10.3702    6.0954    0.0000 O.2     1  UNL1       -0.2504
      4 O           6.0010   -1.6941    0.0000 O.3     1  UNL1       -0.3315
      5 O           7.7331   -3.6941    0.0000 O.3     1  UNL1       -0.3841
      6 O           6.0010   -4.6941    0.0000 O.3     1  UNL1       -0.3400
      7 O           4.2690   -3.6941    0.0000 O.3     1  UNL1       -0.3860
      8 O           4.2690   -0.6941    0.0000 O.3     1  UNL1       -0.4788
      9 O           4.2690   -4.6941    0.0000 O.3     1  UNL1       -0.3405
     10 O           3.4030   -2.1941    0.0000 O.2     1  UNL1       -0.2480
     11 O           6.0010   -6.6941    0.0000 O.3     1  UNL1       -0.3841
     12 O           4.2690   -7.6941    0.0000 O.3     1  UNL1       -0.3864
     13 O           2.5369   -6.6941    0.0000 O.3     1  UNL1       -0.3865
     14 O           2.5369   -3.6941    0.0000 O.3     1  UNL1       -0.3924
     15 C           8.6342    3.0061    0.0000 C.3     1  UNL1       -0.0194
     16 C           7.7701    2.5027    0.0000 C.3     1  UNL1       -0.0257
     17 C           7.7580    1.4612    0.0000 C.3     1  UNL1       -0.0250
     18 C           8.6303    4.0061    0.0000 C.3     1  UNL1       -0.0051
     19 C           8.6581    0.9369    0.0000 C.3     1  UNL1       -0.0278
     20 C           9.5461    2.5027    0.0000 C.3     1  UNL1       -0.0463
     21 C           8.6706   -0.1480    0.0000 C.3     1  UNL1       -0.0052
     22 C           9.5581    1.4612    0.0000 C.3     1  UNL1       -0.0486
     23 C           7.7624    4.5027    0.0000 C.2     1  UNL1       -0.0629
     24 C           6.9021    2.9994    0.0000 C.3     1  UNL1       -0.0306
     25 C           6.8081    0.9369    0.0000 C.3     1  UNL1       -0.0447
     26 C           7.7423    5.5442    0.0000 C.3     1  UNL1       -0.0031
     27 C           9.5383    4.5164    0.0000 C.3     1  UNL1       -0.0424
     28 C           8.6383    6.0754    0.0000 C.3     1  UNL1        0.0741
     29 C           9.6183    3.1835    0.0000 C.3     1  UNL1       -0.0585
     30 C           7.7331   -0.6941    0.0000 C.3     1  UNL1        0.0672
     31 C           9.5424    5.5580    0.0000 C.3     1  UNL1       -0.0359
     32 C           6.8939    1.9645    0.0000 C.3     1  UNL1       -0.0590
     33 C           6.7956   -0.1480    0.0000 C.3     1  UNL1       -0.0255
     34 C           6.8983    3.9994    0.0000 C.2     1  UNL1       -0.0836
     35 C           9.6158    3.8362    0.0000 C.3     1  UNL1       -0.0553
     36 C           6.7884    6.0611    0.0000 C.3     1  UNL1       -0.0403
     37 C           8.6424    7.1604    0.0000 C.3     1  UNL1       -0.0362
     38 C           6.7674    7.1459    0.0000 C.3     1  UNL1       -0.0343
     39 C           9.6706   -0.1403    0.0000 C.3     1  UNL1       -0.0572
     40 C           9.1773   -1.0102    0.0000 C.3     1  UNL1       -0.0572
     41 C           7.7007    7.6992    0.0000 C.3     1  UNL1       -0.0468
     42 C           9.4985    6.5854    0.0000 C.2     1  UNL1        0.3115
     43 C           6.2542    8.0041    0.0000 C.3     1  UNL1       -0.0598
     44 C           5.7676    7.1305    0.0000 C.3     1  UNL1       -0.0598
     45 C           6.8671   -2.1941    0.0000 C.3     1  UNL1        0.1888
     46 C           6.8671   -3.1941    0.0000 C.3     1  UNL1        0.1345
     47 C           6.0010   -3.6941    0.0000 C.3     1  UNL1        0.1211
     48 C           5.1350   -2.1941    0.0000 C.3     1  UNL1        0.1859
     49 C           5.1350   -3.1941    0.0000 C.3     1  UNL1        0.1205
     50 C           4.2690   -1.6941    0.0000 C.2     1  UNL1        0.3367
     51 C           5.1350   -5.1941    0.0000 C.3     1  UNL1        0.1884
     52 C           5.1350   -6.1941    0.0000 C.3     1  UNL1        0.1341
     53 C           4.2690   -6.6941    0.0000 C.3     1  UNL1        0.1141
     54 C           3.4030   -5.1941    0.0000 C.3     1  UNL1        0.1130
     55 C           3.4030   -6.1941    0.0000 C.3     1  UNL1        0.1119
     56 C           2.5369   -4.6941    0.0000 C.3     1  UNL1        0.0730
     57 H           8.5045    2.0749    0.0000 H       1  UNL1        0.0315
     58 H           9.3974    0.5176    0.0000 H       1  UNL1        0.0312
     59 H          10.1581    2.4037    0.0000 H       1  UNL1        0.0271
     60 H           9.7484    3.0888    0.0000 H       1  UNL1        0.0271
     61 H           9.7739    0.8800    0.0000 H       1  UNL1        0.0268
     62 H          10.1677    1.5743    0.0000 H       1  UNL1        0.0268
     63 H           6.2911    3.1047    0.0000 H       1  UNL1        0.0310
     64 H           6.6923    2.4160    0.0000 H       1  UNL1        0.0310
     65 H           6.6058    1.5230    0.0000 H       1  UNL1        0.0271
     66 H           6.1961    0.8379    0.0000 H       1  UNL1        0.0271
     67 H           7.0162    5.1023    0.0000 H       1  UNL1        0.0357
     68 H           9.7451    3.9319    0.0000 H       1  UNL1        0.0274
     69 H          10.1496    4.6202    0.0000 H       1  UNL1        0.0274
     70 H           9.7283    2.5734    0.0000 H       1  UNL1        0.0235
     71 H          10.2284    3.2936    0.0000 H       1  UNL1        0.0235
     72 H           9.5083    3.7937    0.0000 H       1  UNL1        0.0235
     73 H           8.2706   -1.0031    0.0000 H       1  UNL1        0.0602
     74 H          10.1528    5.4496    0.0000 H       1  UNL1        0.0276
     75 H           9.7536    6.1409    0.0000 H       1  UNL1        0.0276
     76 H           7.2060    2.5003    0.0000 H       1  UNL1        0.0235
     77 H           6.3582    2.2766    0.0000 H       1  UNL1        0.0235
     78 H           6.5818    1.4288    0.0000 H       1  UNL1        0.0235
     79 H           6.1860   -0.0349    0.0000 H       1  UNL1        0.0290
     80 H           6.5798   -0.7293    0.0000 H       1  UNL1        0.0290
     81 H           6.3601    4.3073    0.0000 H       1  UNL1        0.0572
     82 H           9.5105    3.2252    0.0000 H       1  UNL1        0.0238
     83 H          10.2268    3.7309    0.0000 H       1  UNL1        0.0238
     84 H           9.7211    4.4472    0.0000 H       1  UNL1        0.0238
     85 H           6.1756    6.1554    0.0000 H       1  UNL1        0.0276
     86 H           6.5906    5.4735    0.0000 H       1  UNL1        0.0276
     87 H           9.2529    7.0519    0.0000 H       1  UNL1        0.0276
     88 H           8.8538    7.7433    0.0000 H       1  UNL1        0.0276
     89 H           9.6754   -0.7603    0.0000 H       1  UNL1        0.0236
     90 H          10.2906   -0.1355    0.0000 H       1  UNL1        0.0236
     91 H           9.6658    0.4797    0.0000 H       1  UNL1        0.0236
     92 H           8.6428   -1.3243    0.0000 H       1  UNL1        0.0236
     93 H           9.4914   -1.5447    0.0000 H       1  UNL1        0.0236
     94 H           9.7118   -0.6960    0.0000 H       1  UNL1        0.0236
     95 H           8.0962    8.1767    0.0000 H       1  UNL1        0.0271
     96 H           7.2980    8.1706    0.0000 H       1  UNL1        0.0271
     97 H           5.7580    7.7504    0.0000 H       1  UNL1        0.0235
     98 H           5.1476    7.1209    0.0000 H       1  UNL1        0.0235
     99 H           5.7771    6.5106    0.0000 H       1  UNL1        0.0235
    100 H           6.7862    8.3224    0.0000 H       1  UNL1        0.0235
    101 H           5.9359    8.5362    0.0000 H       1  UNL1        0.0235
    102 H           5.7220    7.6859    0.0000 H       1  UNL1        0.0235
    103 H           7.4040   -2.5041    0.0000 H       1  UNL1        0.0938
    104 H          10.0202    7.9015    0.0000 H       1  UNL1        0.2951
    105 H           6.8671   -3.8141    0.0000 H       1  UNL1        0.0671
    106 H           5.4641   -4.0041    0.0000 H       1  UNL1        0.0652
    107 H           5.1350   -1.5741    0.0000 H       1  UNL1        0.0741
    108 H           4.5981   -2.8841    0.0000 H       1  UNL1        0.0652
    109 H           7.7331   -4.3141    0.0000 H       1  UNL1        0.2101
    110 H           3.7320   -3.3841    0.0000 H       1  UNL1        0.2100
    111 H           5.1350   -4.5741    0.0000 H       1  UNL1        0.0938
    112 H           5.1350   -6.8141    0.0000 H       1  UNL1        0.0671
    113 H           3.7320   -0.3841    0.0000 H       1  UNL1        0.2951
    114 H           3.7320   -7.0041    0.0000 H       1  UNL1        0.0648
    115 H           3.4030   -4.5741    0.0000 H       1  UNL1        0.0647
    116 H           2.8660   -5.8841    0.0000 H       1  UNL1        0.0647
    117 H           6.0010   -7.3141    0.0000 H       1  UNL1        0.2101
    118 H           1.9264   -4.5865    0.0000 H       1  UNL1        0.0584
    119 H           2.3249   -5.2767    0.0000 H       1  UNL1        0.0584
    120 H           3.7320   -8.0041    0.0000 H       1  UNL1        0.2100
    121 H           2.0000   -6.3841    0.0000 H       1  UNL1        0.2100
    122 H           2.0000   -3.3841    0.0000 H       1  UNL1        0.2095
@<TRIPOS>BOND
     1    30     1    1
     2    45     1    1
     3     2    42    1
     4     2   104    1
     5     3    42    2
     6     4    45    1
     7     4    48    1
     8    46     5    1
     9     5   109    1
    10    47     6    1
    11    51     6    1
    12    49     7    1
    13     7   110    1
    14     8    50    1
    15     8   113    1
    16     9    51    1
    17     9    54    1
    18    10    50    2
    19    52    11    1
    20    11   117    1
    21    53    12    1
    22    12   120    1
    23    55    13    1
    24    13   121    1
    25    14    56    1
    26    14   122    1
    27    15    16    1
    28    15    18    1
    29    15    20    1
    30    15    29    1
    31    16    17    1
    32    16    24    1
    33    16    57    1
    34    17    19    1
    35    17    25    1
    36    17    32    1
    37    18    23    1
    38    18    27    1
    39    18    35    1
    40    19    21    1
    41    19    22    1
    42    19    58    1
    43    20    22    1
    44    20    59    1
    45    20    60    1
    46    21    30    1
    47    21    39    1
    48    21    40    1
    49    22    61    1
    50    22    62    1
    51    23    26    1
    52    23    34    2
    53    24    34    1
    54    24    63    1
    55    24    64    1
    56    25    33    1
    57    25    65    1
    58    25    66    1
    59    26    28    1
    60    26    36    1
    61    26    67    1
    62    27    31    1
    63    27    68    1
    64    27    69    1
    65    28    31    1
    66    28    37    1
    67    28    42    1
    68    29    70    1
    69    29    71    1
    70    29    72    1
    71    30    33    1
    72    30    73    1
    73    31    74    1
    74    31    75    1
    75    32    76    1
    76    32    77    1
    77    32    78    1
    78    33    79    1
    79    33    80    1
    80    34    81    1
    81    35    82    1
    82    35    83    1
    83    35    84    1
    84    36    38    1
    85    36    85    1
    86    36    86    1
    87    37    41    1
    88    37    87    1
    89    37    88    1
    90    38    41    1
    91    38    43    1
    92    38    44    1
    93    39    89    1
    94    39    90    1
    95    39    91    1
    96    40    92    1
    97    40    93    1
    98    40    94    1
    99    41    95    1
   100    41    96    1
   101    43   100    1
   102    43   101    1
   103    43   102    1
   104    44    97    1
   105    44    98    1
   106    44    99    1
   107    45    46    1
   108    45   103    1
   109    46    47    1
   110    46   105    1
   111    47    49    1
   112    47   106    1
   113    48    49    1
   114    48    50    1
   115    48   107    1
   116    49   108    1
   117    51    52    1
   118    51   111    1
   119    52    53    1
   120    52   112    1
   121    53    55    1
   122    53   114    1
   123    54    55    1
   124    54    56    1
   125    54   115    1
   126    55   116    1
   127    56   118    1
   128    56   119    1
