@<TRIPOS>MOLECULE
IMPHY006390
 25 25 0 0 0
SMALL
GASTEIGER

@<TRIPOS>ATOM
      1 O           4.2690    0.6550    0.0000 O.3     1  UNL1       -0.3395
      2 O           2.5369   -1.3450    0.0000 O.3     1  UNL1       -0.3865
      3 O           4.2690   -2.3450    0.0000 O.3     1  UNL1       -0.3864
      4 O           6.0010   -1.3450    0.0000 O.3     1  UNL1       -0.3841
      5 O           6.0010    0.6550    0.0000 O.3     1  UNL1       -0.2424
      6 O           2.5369    1.6550    0.0000 O.3     1  UNL1       -0.3924
      7 N           6.0010    2.6550    0.0000 N.1     1  UNL1       -0.1635
      8 C           3.4030   -0.8450    0.0000 C.3     1  UNL1        0.1119
      9 C           4.2690   -1.3450    0.0000 C.3     1  UNL1        0.1141
     10 C           3.4030    0.1550    0.0000 C.3     1  UNL1        0.1130
     11 C           5.1350   -0.8450    0.0000 C.3     1  UNL1        0.1353
     12 C           5.1350    0.1550    0.0000 C.3     1  UNL1        0.2046
     13 C           2.5369    0.6550    0.0000 C.3     1  UNL1        0.0730
     14 C           6.0010    1.6550    0.0000 C.1     1  UNL1        0.2302
     15 H           3.4030   -1.4650    0.0000 H       1  UNL1        0.0647
     16 H           4.8059   -1.6550    0.0000 H       1  UNL1        0.0648
     17 H           3.4030    0.7750    0.0000 H       1  UNL1        0.0647
     18 H           5.6720   -0.5350    0.0000 H       1  UNL1        0.0671
     19 H           5.1350    0.7750    0.0000 H       1  UNL1        0.0949
     20 H           1.9264    0.7627    0.0000 H       1  UNL1        0.0584
     21 H           2.3249    0.0724    0.0000 H       1  UNL1        0.0584
     22 H           2.0000   -1.0350    0.0000 H       1  UNL1        0.2100
     23 H           3.7320   -2.6550    0.0000 H       1  UNL1        0.2100
     24 H           6.5380   -1.0350    0.0000 H       1  UNL1        0.2101
     25 H           2.0000    1.9650    0.0000 H       1  UNL1        0.2095
@<TRIPOS>BOND
     1     1    10    1
     2     1    12    1
     3     8     2    1
     4     2    22    1
     5     9     3    1
     6     3    23    1
     7    11     4    1
     8     4    24    1
     9     5    12    1
    10     5    14    1
    11     6    13    1
    12     6    25    1
    13     7    14    3
    14     8     9    1
    15     8    10    1
    16     8    15    1
    17     9    11    1
    18     9    16    1
    19    10    13    1
    20    10    17    1
    21    11    12    1
    22    11    18    1
    23    12    19    1
    24    13    20    1
    25    13    21    1
