@<TRIPOS>MOLECULE
IMPHY000684
 47 50 0 0 0
SMALL
GASTEIGER

@<TRIPOS>ATOM
      1 O           7.2468    0.1824    0.0000 O.3     1  UNL1       -0.3707
      2 O           4.1781    0.1824    0.0000 O.3     1  UNL1       -0.4559
      3 O           4.4569    1.9425    0.0000 O.2     1  UNL1       -0.2504
      4 O           9.2415    3.3006    0.0000 O.3     1  UNL1       -0.4950
      5 O           5.4862   -4.0150    0.0000 O.3     1  UNL1       -0.4950
      6 O           5.9488    4.3768    0.0000 O.3     1  UNL1       -0.5066
      7 O           2.1916   -2.9446    0.0000 O.3     1  UNL1       -0.5066
      8 C           5.7170   -0.3176    0.0000 C.3     1  UNL1        0.0394
      9 C           5.7170    0.6824    0.0000 C.3     1  UNL1        0.0952
     10 C           6.6632    0.9871    0.0000 C.3     1  UNL1        0.0972
     11 C           4.7659   -0.6266    0.0000 C.3     1  UNL1        0.1340
     12 C           6.6632   -0.6223    0.0000 C.3     1  UNL1        0.0558
     13 C           4.7659    0.9914    0.0000 C.2     1  UNL1        0.3141
     14 C           6.9739    1.9376    0.0000 C.ar    1  UNL1       -0.0112
     15 C           4.4569   -1.5777    0.0000 C.ar    1  UNL1       -0.0000
     16 C           7.9524    2.1439    0.0000 C.ar    1  UNL1       -0.0141
     17 C           6.3060    2.6819    0.0000 C.ar    1  UNL1       -0.0143
     18 C           5.1260   -2.3208    0.0000 C.ar    1  UNL1       -0.0130
     19 C           3.4788   -1.7856    0.0000 C.ar    1  UNL1       -0.0133
     20 C           8.2630    3.0944    0.0000 C.ar    1  UNL1        0.1239
     21 C           4.8170   -3.2719    0.0000 C.ar    1  UNL1        0.1239
     22 C           6.6167    3.6325    0.0000 C.ar    1  UNL1        0.1207
     23 C           3.1697   -2.7366    0.0000 C.ar    1  UNL1        0.1207
     24 C           7.5952    3.8387    0.0000 C.ar    1  UNL1        0.0215
     25 C           3.8389   -3.4798    0.0000 C.ar    1  UNL1        0.0215
     26 C           9.5522    4.2511    0.0000 C.3     1  UNL1        0.0788
     27 C           5.1771   -4.9661    0.0000 C.3     1  UNL1        0.0788
     28 H           5.7181   -1.1676    0.0000 H       1  UNL1        0.0371
     29 H           5.7181    1.5324    0.0000 H       1  UNL1        0.0447
     30 H           7.2757    1.0833    0.0000 H       1  UNL1        0.0654
     31 H           4.1536   -0.7236    0.0000 H       1  UNL1        0.0789
     32 H           6.4122   -1.1892    0.0000 H       1  UNL1        0.0564
     33 H           7.2006   -0.9316    0.0000 H       1  UNL1        0.0564
     34 H           8.3664    1.6824    0.0000 H       1  UNL1        0.0658
     35 H           5.6993    2.5541    0.0000 H       1  UNL1        0.0658
     36 H           5.7325   -2.1919    0.0000 H       1  UNL1        0.0658
     37 H           3.0639   -1.3248    0.0000 H       1  UNL1        0.0658
     38 H           7.7878    4.4280    0.0000 H       1  UNL1        0.0691
     39 H           3.6473   -4.0694    0.0000 H       1  UNL1        0.0691
     40 H           6.1414    4.9661    0.0000 H       1  UNL1        0.2921
     41 H           2.0000   -3.5342    0.0000 H       1  UNL1        0.2921
     42 H          10.1415    4.0585    0.0000 H       1  UNL1        0.0660
     43 H           9.7448    4.8404    0.0000 H       1  UNL1        0.0660
     44 H           8.9629    4.4437    0.0000 H       1  UNL1        0.0660
     45 H           4.5875   -4.7745    0.0000 H       1  UNL1        0.0660
     46 H           4.9855   -5.5557    0.0000 H       1  UNL1        0.0660
     47 H           5.7668   -5.1577    0.0000 H       1  UNL1        0.0660
@<TRIPOS>BOND
     1     1    10    1
     2     1    12    1
     3     2    11    1
     4     2    13    1
     5     3    13    2
     6     4    20    1
     7     4    26    1
     8     5    21    1
     9     5    27    1
    10     6    22    1
    11     6    40    1
    12     7    23    1
    13     7    41    1
    14     8     9    1
    15     8    11    1
    16     8    12    1
    17     8    28    1
    18     9    10    1
    19     9    13    1
    20     9    29    1
    21    10    14    1
    22    10    30    1
    23    11    15    1
    24    11    31    1
    25    12    32    1
    26    12    33    1
    27    14    16   ar
    28    14    17   ar
    29    15    18   ar
    30    15    19   ar
    31    16    20   ar
    32    16    34    1
    33    17    22   ar
    34    17    35    1
    35    18    21   ar
    36    18    36    1
    37    19    23   ar
    38    19    37    1
    39    20    24   ar
    40    21    25   ar
    41    22    24   ar
    42    23    25   ar
    43    24    38    1
    44    25    39    1
    45    26    42    1
    46    26    43    1
    47    26    44    1
    48    27    45    1
    49    27    46    1
    50    27    47    1
