@<TRIPOS>MOLECULE
IMPHY001945
 90 95 0 0 0
SMALL
GASTEIGER

@<TRIPOS>ATOM
      1 O          13.3640    3.6492    0.0000 O.3     1  UNL1       -0.3591
      2 O          13.0220    1.8603    0.0000 O.3     1  UNL1       -0.3151
      3 O          12.1359    1.3758    0.0000 O.3     1  UNL1       -0.3161
      4 O          12.2418   -0.2007    0.0000 O.3     1  UNL1       -0.3095
      5 O          16.1992    3.6929    0.0000 O.3     1  UNL1       -0.3773
      6 O          15.7871    4.4008    0.0000 O.3     1  UNL1       -0.3854
      7 O          14.6114    5.2125    0.0000 O.3     1  UNL1       -0.3920
      8 O          17.4814    3.6621    0.0000 O.2     1  UNL1       -0.2892
      9 C          13.9523    1.7430    0.0000 C.3     1  UNL1        0.0478
     10 C          14.8532    1.3092    0.0000 C.3     1  UNL1        0.0951
     11 C          13.7297    2.7180    0.0000 C.3     1  UNL1        0.1013
     12 C          14.3532    3.4998    0.0000 C.3     1  UNL1        0.1479
     13 C          13.0827    1.1696    0.0000 C.3     1  UNL1        0.1053
     14 C          15.7542    1.7430    0.0000 C.3     1  UNL1        0.0464
     15 C          14.9471    0.2718    0.0000 C.3     1  UNL1       -0.0104
     16 C          13.1525    0.1303    0.0000 C.3     1  UNL1        0.1227
     17 C          15.9767    2.7180    0.0000 C.3     1  UNL1        0.1650
     18 C          15.3532    3.4998    0.0000 C.3     1  UNL1        0.1252
     19 C          14.0910   -0.3216    0.0000 C.3     1  UNL1       -0.0120
     20 C          11.6292    0.5500    0.0000 C.3     1  UNL1        0.3092
     21 C          14.9767    4.2816    0.0000 C.3     1  UNL1        0.0783
     22 C          16.6089    1.2354    0.0000 C.2     1  UNL1       -0.0687
     23 C          16.9670    2.8045    0.0000 C.2     1  UNL1        0.1933
     24 C          15.8530   -0.1517    0.0000 C.3     1  UNL1       -0.0597
     25 C          13.1025   -0.8684    0.0000 C.2     1  UNL1       -0.0456
     26 C          17.3569    1.8901    0.0000 C.2     1  UNL1       -0.0085
     27 C          10.6314    0.4829    0.0000 C.2     1  UNL1        0.0043
     28 C          12.2125   -1.3244    0.0000 C.3     1  UNL1       -0.0413
     29 C          18.3319    1.6676    0.0000 C.3     1  UNL1       -0.0366
     30 C          13.9424   -1.4111    0.0000 C.2     1  UNL1       -0.0969
     31 C          10.1906   -0.4147    0.0000 C.2     1  UNL1       -0.0585
     32 C           9.1928   -0.4817    0.0000 C.2     1  UNL1       -0.0657
     33 C           8.7520   -1.3793    0.0000 C.2     1  UNL1       -0.0840
     34 C           7.7543   -1.4464    0.0000 C.3     1  UNL1       -0.0345
     35 C           7.3134   -2.3440    0.0000 C.3     1  UNL1       -0.0496
     36 C           6.3157   -2.4110    0.0000 C.3     1  UNL1       -0.0528
     37 C           5.8749   -3.3086    0.0000 C.3     1  UNL1       -0.0530
     38 C           4.8771   -3.3756    0.0000 C.3     1  UNL1       -0.0531
     39 C           4.4363   -4.2732    0.0000 C.3     1  UNL1       -0.0531
     40 C           3.4386   -4.3403    0.0000 C.3     1  UNL1       -0.0533
     41 C           2.9978   -5.2379    0.0000 C.3     1  UNL1       -0.0559
     42 C           2.0000   -5.3049    0.0000 C.3     1  UNL1       -0.0653
     43 H          14.4370    2.1296    0.0000 H       1  UNL1        0.0381
     44 H          13.1373    2.5351    0.0000 H       1  UNL1        0.0631
     45 H          12.9691    1.7791    0.0000 H       1  UNL1        0.0635
     46 H          15.7172    0.8938    0.0000 H       1  UNL1        0.0405
     47 H          14.9994   -0.3460    0.0000 H       1  UNL1        0.0327
     48 H          15.0234    4.0248    0.0000 H       1  UNL1        0.0657
     49 H          13.7304   -0.8260    0.0000 H       1  UNL1        0.0301
     50 H          14.5262   -0.7632    0.0000 H       1  UNL1        0.0301
     51 H          15.3870    3.8168    0.0000 H       1  UNL1        0.0588
     52 H          15.5058    4.6049    0.0000 H       1  UNL1        0.0588
     53 H          16.6655    0.6180    0.0000 H       1  UNL1        0.0580
     54 H          15.5905   -0.7133    0.0000 H       1  UNL1        0.0233
     55 H          16.4147   -0.4142    0.0000 H       1  UNL1        0.0233
     56 H          16.1155    0.4100    0.0000 H       1  UNL1        0.0233
     57 H          16.7917    3.8756    0.0000 H       1  UNL1        0.2109
     58 H          15.4379    4.9130    0.0000 H       1  UNL1        0.2100
     59 H          10.2861    0.9979    0.0000 H       1  UNL1        0.0651
     60 H          11.9298   -0.7727    0.0000 H       1  UNL1        0.0275
     61 H          11.6607   -1.6072    0.0000 H       1  UNL1        0.0275
     62 H          12.4952   -1.8762    0.0000 H       1  UNL1        0.0275
     63 H          13.9983    5.3049    0.0000 H       1  UNL1        0.2095
     64 H          18.1939    1.0631    0.0000 H       1  UNL1        0.0279
     65 H          18.9363    1.5296    0.0000 H       1  UNL1        0.0279
     66 H          18.4698    2.2720    0.0000 H       1  UNL1        0.0279
     67 H          13.9113   -2.0304    0.0000 H       1  UNL1        0.0535
     68 H          14.4942   -1.1284    0.0000 H       1  UNL1        0.0535
     69 H          10.5359   -0.9296    0.0000 H       1  UNL1        0.0617
     70 H           8.8475    0.0332    0.0000 H       1  UNL1        0.0614
     71 H           9.0973   -1.8943    0.0000 H       1  UNL1        0.0572
     72 H           7.8208   -0.8299    0.0000 H       1  UNL1        0.0307
     73 H           7.1588   -1.2738    0.0000 H       1  UNL1        0.0307
     74 H           7.2470   -2.9604    0.0000 H       1  UNL1        0.0268
     75 H           7.9090   -2.5165    0.0000 H       1  UNL1        0.0268
     76 H           6.3822   -1.7946    0.0000 H       1  UNL1        0.0265
     77 H           5.7202   -2.2385    0.0000 H       1  UNL1        0.0265
     78 H           5.8084   -3.9250    0.0000 H       1  UNL1        0.0265
     79 H           6.4704   -3.4811    0.0000 H       1  UNL1        0.0265
     80 H           4.9436   -2.7592    0.0000 H       1  UNL1        0.0265
     81 H           4.2816   -3.2031    0.0000 H       1  UNL1        0.0265
     82 H           4.3698   -4.8897    0.0000 H       1  UNL1        0.0265
     83 H           5.0318   -4.4458    0.0000 H       1  UNL1        0.0265
     84 H           3.5050   -3.7238    0.0000 H       1  UNL1        0.0265
     85 H           2.8430   -4.1678    0.0000 H       1  UNL1        0.0265
     86 H           2.9313   -5.8543    0.0000 H       1  UNL1        0.0263
     87 H           3.5933   -5.4104    0.0000 H       1  UNL1        0.0263
     88 H           1.9584   -4.6863    0.0000 H       1  UNL1        0.0230
     89 H           1.3814   -5.3465    0.0000 H       1  UNL1        0.0230
     90 H           2.0416   -5.9235    0.0000 H       1  UNL1        0.0230
@<TRIPOS>BOND
     1     1    11    1
     2     1    12    1
     3     2    10    1
     4     2    20    1
     5     3    13    1
     6     3    20    1
     7     4    16    1
     8     4    20    1
     9    17     5    1
    10     5    57    1
    11    18     6    1
    12     6    58    1
    13     7    21    1
    14     7    63    1
    15     8    23    2
    16     9    10    1
    17     9    11    1
    18     9    13    1
    19     9    43    1
    20    10    14    1
    21    10    15    1
    22    11    12    1
    23    11    44    1
    24    12    18    1
    25    12    21    1
    26    13    16    1
    27    13    45    1
    28    14    17    1
    29    14    22    1
    30    14    46    1
    31    15    19    1
    32    15    24    1
    33    15    47    1
    34    16    19    1
    35    16    25    1
    36    17    18    1
    37    17    23    1
    38    18    48    1
    39    19    49    1
    40    19    50    1
    41    20    27    1
    42    21    51    1
    43    21    52    1
    44    22    26    2
    45    22    53    1
    46    23    26    1
    47    24    54    1
    48    24    55    1
    49    24    56    1
    50    25    28    1
    51    25    30    2
    52    26    29    1
    53    27    31    2
    54    27    59    1
    55    28    60    1
    56    28    61    1
    57    28    62    1
    58    29    64    1
    59    29    65    1
    60    29    66    1
    61    30    67    1
    62    30    68    1
    63    31    32    1
    64    31    69    1
    65    32    33    2
    66    32    70    1
    67    33    34    1
    68    33    71    1
    69    34    35    1
    70    34    72    1
    71    34    73    1
    72    35    36    1
    73    35    74    1
    74    35    75    1
    75    36    37    1
    76    36    76    1
    77    36    77    1
    78    37    38    1
    79    37    78    1
    80    37    79    1
    81    38    39    1
    82    38    80    1
    83    38    81    1
    84    39    40    1
    85    39    82    1
    86    39    83    1
    87    40    41    1
    88    40    84    1
    89    40    85    1
    90    41    42    1
    91    41    86    1
    92    41    87    1
    93    42    88    1
    94    42    89    1
    95    42    90    1
