@<TRIPOS>MOLECULE
IMPHY014719
 30 32 0 0 0
SMALL
GASTEIGER

@<TRIPOS>ATOM
      1 O           7.6255    0.9840    0.0000 O.3     1  UNL1       -0.4603
      2 O           5.9721    1.5002    0.0000 O.2     1  UNL1       -0.2432
      3 N           4.5274    0.1658    0.0000 N.ar    1  UNL1       -0.3523
      4 N           7.0547   -0.9584    0.0000 N.ar    1  UNL1       -0.2465
      5 C           5.0274   -1.3731    0.0000 C.ar    1  UNL1        0.0111
      6 C           4.0274   -1.3731    0.0000 C.ar    1  UNL1        0.0075
      7 C           5.3364   -0.4220    0.0000 C.ar    1  UNL1        0.0803
      8 C           3.7183   -0.4220    0.0000 C.ar    1  UNL1        0.0475
      9 C           6.3518   -0.1898    0.0000 C.ar    1  UNL1        0.1714
     10 C           5.7123   -2.1578    0.0000 C.ar    1  UNL1       -0.0338
     11 C           3.3424   -2.1578    0.0000 C.ar    1  UNL1       -0.0520
     12 C           2.7029   -0.1898    0.0000 C.ar    1  UNL1       -0.0378
     13 C           2.3219   -1.9491    0.0000 C.ar    1  UNL1       -0.0611
     14 C           2.0000   -0.9584    0.0000 C.ar    1  UNL1       -0.0598
     15 C           6.7328   -1.9491    0.0000 C.ar    1  UNL1        0.0292
     16 C           6.6498    0.7648    0.0000 C.2     1  UNL1        0.3598
     17 C           7.9235    1.9386    0.0000 C.3     1  UNL1        0.0900
     18 C           8.8991    2.1578    0.0000 C.3     1  UNL1       -0.0306
     19 H           4.5274    0.7858    0.0000 H       1  UNL1        0.1660
     20 H           5.5139   -2.7452    0.0000 H       1  UNL1        0.0639
     21 H           3.5408   -2.7452    0.0000 H       1  UNL1        0.0624
     22 H           2.5182    0.4021    0.0000 H       1  UNL1        0.0638
     23 H           1.9088   -2.4114    0.0000 H       1  UNL1        0.0618
     24 H           1.3940   -0.8272    0.0000 H       1  UNL1        0.0618
     25 H           7.1459   -2.4114    0.0000 H       1  UNL1        0.0830
     26 H           7.8947    2.5579    0.0000 H       1  UNL1        0.0695
     27 H           7.3085    2.0178    0.0000 H       1  UNL1        0.0695
     28 H           9.0350    1.5529    0.0000 H       1  UNL1        0.0262
     29 H           9.5041    2.2937    0.0000 H       1  UNL1        0.0262
     30 H           8.7632    2.7627    0.0000 H       1  UNL1        0.0262
@<TRIPOS>BOND
     1     1    16    1
     2     1    17    1
     3     2    16    2
     4     3     7   ar
     5     3     8   ar
     6     3    19    1
     7     4     9   ar
     8     4    15   ar
     9     5     6   ar
    10     5     7   ar
    11     5    10   ar
    12     6     8   ar
    13     6    11   ar
    14     7     9   ar
    15     8    12   ar
    16     9    16    1
    17    10    15   ar
    18    10    20    1
    19    11    13   ar
    20    11    21    1
    21    12    14   ar
    22    12    22    1
    23    13    14   ar
    24    13    23    1
    25    14    24    1
    26    15    25    1
    27    17    18    1
    28    17    26    1
    29    17    27    1
    30    18    28    1
    31    18    29    1
    32    18    30    1
