@<TRIPOS>MOLECULE
IMPHY000613
 20 19 0 0 0
SMALL
GASTEIGER

@<TRIPOS>ATOM
      1 O           2.5369    0.3100    0.0000 O.3     1  UNL1       -0.4793
      2 OXT         3.4030    1.8100    0.0000 O.2     1  UNL1       -0.2489
      3 O           6.0010   -0.6900    0.0000 O.2     1  UNL1       -0.2630
      4 O           7.7331    0.3100    0.0000 O.3     1  UNL1       -0.4740
      5 O           6.8671    1.8100    0.0000 O.2     1  UNL1       -0.2399
      6 N           5.1350    0.8100    0.0000 N.am    1  UNL1       -0.2920
      7 N           3.4030   -1.1900    0.0000 N.3     1  UNL1       -0.3278
      8 CA          4.2690    0.3100    0.0000 C.3     1  UNL1        0.1330
      9 C           4.2690   -0.6900    0.0000 C.3     1  UNL1        0.0221
     10 C           3.4030    0.8100    0.0000 C.2     1  UNL1        0.3265
     11 C           6.0010    0.3100    0.0000 C.2     1  UNL1        0.3219
     12 C           6.8671    0.8100    0.0000 C.2     1  UNL1        0.3923
     13 HA          4.2690    0.9300    0.0000 H       1  UNL1        0.0627
     14 H           4.4810   -1.2726    0.0000 H       1  UNL1        0.0445
     15 H           4.8796   -0.5823    0.0000 H       1  UNL1        0.0445
     16 H           5.1350    1.4300    0.0000 H       1  UNL1        0.1501
     17 H           3.4030   -1.8100    0.0000 H       1  UNL1        0.1183
     18 H           2.8660   -0.8800    0.0000 H       1  UNL1        0.1183
     19 H           2.0000    0.6200    0.0000 H       1  UNL1        0.2951
     20 H           8.2700    0.6200    0.0000 H       1  UNL1        0.2956
@<TRIPOS>BOND
     1     1    10    1
     2     1    19    1
     3     2    10    2
     4     3    11    2
     5     4    12    1
     6     4    20    1
     7     5    12    2
     8     6     8    1
     9     6    11   am
    10     6    16    1
    11     7     9    1
    12     7    17    1
    13     7    18    1
    14     8     9    1
    15     8    10    1
    16     8    13    1
    17     9    14    1
    18     9    15    1
    19    11    12    1
