@<TRIPOS>MOLECULE
IMPHY009887
 29 31 0 0 0
SMALL
GASTEIGER

@<TRIPOS>ATOM
      1 O           6.4144    1.8592    0.0000 O.3     1  UNL1       -0.5057
      2 O           4.6660    1.8246    0.0000 O.2     1  UNL1       -0.2865
      3 O           4.6660   -2.1754    0.0000 O.2     1  UNL1       -0.2866
      4 O           9.0641    0.3521    0.0000 O.3     1  UNL1       -0.3903
      5 C           5.5321    0.3246    0.0000 C.ar    1  UNL1        0.0748
      6 C           5.5321   -0.6754    0.0000 C.ar    1  UNL1        0.0366
      7 C           3.8000    0.3246    0.0000 C.ar    1  UNL1        0.0332
      8 C           3.8000   -0.6754    0.0000 C.ar    1  UNL1        0.0331
      9 C           4.6660    0.8246    0.0000 C.2     1  UNL1        0.1980
     10 C           4.6660   -1.1754    0.0000 C.2     1  UNL1        0.1946
     11 C           6.4260    0.8593    0.0000 C.ar    1  UNL1        0.1337
     12 C           7.3321    0.3454    0.0000 C.ar    1  UNL1        0.0200
     13 C           6.4260   -1.2100    0.0000 C.ar    1  UNL1       -0.0497
     14 C           7.3321   -0.6962    0.0000 C.ar    1  UNL1       -0.0522
     15 C           2.9061    0.8593    0.0000 C.ar    1  UNL1       -0.0502
     16 C           2.9061   -1.2100    0.0000 C.ar    1  UNL1       -0.0502
     17 C           8.1962    0.8488    0.0000 C.3     1  UNL1        0.0727
     18 C           2.0000    0.3454    0.0000 C.ar    1  UNL1       -0.0610
     19 C           2.0000   -0.6962    0.0000 C.ar    1  UNL1       -0.0610
     20 H           6.4188   -1.8300    0.0000 H       1  UNL1        0.0625
     21 H           7.8678   -1.0083    0.0000 H       1  UNL1        0.0622
     22 H           2.9132    1.4792    0.0000 H       1  UNL1        0.0625
     23 H           2.9132   -1.8300    0.0000 H       1  UNL1        0.0625
     24 H           8.5929    1.3252    0.0000 H       1  UNL1        0.0608
     25 H           7.7958    1.3222    0.0000 H       1  UNL1        0.0608
     26 H           1.4643    0.6575    0.0000 H       1  UNL1        0.0618
     27 H           1.4643   -1.0083    0.0000 H       1  UNL1        0.0618
     28 H           6.9478    2.1754    0.0000 H       1  UNL1        0.2922
     29 H           9.5998    0.6642    0.0000 H       1  UNL1        0.2098
@<TRIPOS>BOND
     1     1    11    1
     2     1    28    1
     3     2     9    2
     4     3    10    2
     5     4    17    1
     6     4    29    1
     7     5     6   ar
     8     5     9    1
     9     5    11   ar
    10     6    10    1
    11     6    13   ar
    12     7     8   ar
    13     7     9    1
    14     7    15   ar
    15     8    10    1
    16     8    16   ar
    17    11    12   ar
    18    12    14   ar
    19    12    17    1
    20    13    14   ar
    21    13    20    1
    22    14    21    1
    23    15    18   ar
    24    15    22    1
    25    16    19   ar
    26    16    23    1
    27    17    24    1
    28    17    25    1
    29    18    19   ar
    30    18    26    1
    31    19    27    1
