@<TRIPOS>MOLECULE
IMPHY013375
 50 52 0 0 0
SMALL
GASTEIGER

@<TRIPOS>ATOM
      1 O           5.0868    3.9239    0.0000 O.2     1  UNL1       -0.2923
      2 O           3.7208   -3.1149    0.0000 O.3     1  UNL1       -0.4278
      3 O           2.4608   -1.8548    0.0000 O.3     1  UNL1       -0.3541
      4 O           5.3086   -3.9239    0.0000 O.2     1  UNL1       -0.2455
      5 C           5.9529    1.4239    0.0000 C.3     1  UNL1       -0.0118
      6 C           5.9529    2.4239    0.0000 C.3     1  UNL1        0.0328
      7 C           6.8468    2.9586    0.0000 C.3     1  UNL1       -0.0245
      8 C           6.8468    0.8893    0.0000 C.3     1  UNL1       -0.0461
      9 C           5.0868    0.9239    0.0000 C.3     1  UNL1        0.0046
     10 C           7.7529    2.4447    0.0000 C.3     1  UNL1       -0.0472
     11 C           7.7529    1.4031    0.0000 C.3     1  UNL1       -0.0520
     12 C           5.9529    0.4239    0.0000 C.3     1  UNL1       -0.0581
     13 C           5.0868    2.9239    0.0000 C.2     1  UNL1        0.1602
     14 C           7.3368    3.8303    0.0000 C.3     1  UNL1       -0.0591
     15 C           6.3368    3.8188    0.0000 C.3     1  UNL1       -0.0591
     16 C           4.2208    1.4239    0.0000 C.2     1  UNL1       -0.0620
     17 C           4.2208    2.4239    0.0000 C.2     1  UNL1       -0.0193
     18 C           5.0868   -0.0761    0.0000 C.2     1  UNL1       -0.0759
     19 C           3.3548    0.9239    0.0000 C.3     1  UNL1       -0.0428
     20 C           4.2208   -0.5761    0.0000 C.2     1  UNL1       -0.0558
     21 C           4.2208   -1.5761    0.0000 C.2     1  UNL1        0.0266
     22 C           3.4118   -2.1639    0.0000 C.3     1  UNL1        0.2296
     23 C           5.0298   -2.1639    0.0000 C.2     1  UNL1        0.0316
     24 C           4.7208   -3.1149    0.0000 C.2     1  UNL1        0.3348
     25 H           5.9463    3.2739    0.0000 H       1  UNL1        0.0392
     26 H           6.4422    0.4195    0.0000 H       1  UNL1        0.0271
     27 H           7.2404    0.4102    0.0000 H       1  UNL1        0.0271
     28 H           4.5499    0.6139    0.0000 H       1  UNL1        0.0394
     29 H           8.3637    2.3386    0.0000 H       1  UNL1        0.0271
     30 H           7.9619    3.0284    0.0000 H       1  UNL1        0.0271
     31 H           7.9619    0.8194    0.0000 H       1  UNL1        0.0266
     32 H           8.3637    1.5092    0.0000 H       1  UNL1        0.0266
     33 H           5.3329    0.4239    0.0000 H       1  UNL1        0.0236
     34 H           5.9529   -0.1961    0.0000 H       1  UNL1        0.0236
     35 H           6.5729    0.4239    0.0000 H       1  UNL1        0.0236
     36 H           7.8772    3.5266    0.0000 H       1  UNL1        0.0235
     37 H           7.6405    4.3708    0.0000 H       1  UNL1        0.0235
     38 H           6.7963    4.1341    0.0000 H       1  UNL1        0.0235
     39 H           6.8702    4.1350    0.0000 H       1  UNL1        0.0235
     40 H           6.0206    4.3521    0.0000 H       1  UNL1        0.0235
     41 H           5.8035    3.5026    0.0000 H       1  UNL1        0.0235
     42 H           3.6839    2.7339    0.0000 H       1  UNL1        0.0652
     43 H           5.6238   -0.3861    0.0000 H       1  UNL1        0.0578
     44 H           3.0448    1.4609    0.0000 H       1  UNL1        0.0275
     45 H           2.8179    0.6139    0.0000 H       1  UNL1        0.0275
     46 H           3.6648    0.3870    0.0000 H       1  UNL1        0.0275
     47 H           3.6839   -0.2661    0.0000 H       1  UNL1        0.0619
     48 H           3.3148   -1.5515    0.0000 H       1  UNL1        0.1111
     49 H           5.6195   -1.9723    0.0000 H       1  UNL1        0.0694
     50 H           2.0000   -2.2697    0.0000 H       1  UNL1        0.2139
@<TRIPOS>BOND
     1     1    13    2
     2     2    22    1
     3     2    24    1
     4    22     3    1
     5     3    50    1
     6     4    24    2
     7     5     6    1
     8     5     8    1
     9     5     9    1
    10     5    12    1
    11     6     7    1
    12     6    13    1
    13     6    25    1
    14     7    10    1
    15     7    14    1
    16     7    15    1
    17     8    11    1
    18     8    26    1
    19     8    27    1
    20     9    16    1
    21     9    18    1
    22     9    28    1
    23    10    11    1
    24    10    29    1
    25    10    30    1
    26    11    31    1
    27    11    32    1
    28    12    33    1
    29    12    34    1
    30    12    35    1
    31    13    17    1
    32    14    36    1
    33    14    37    1
    34    14    38    1
    35    15    39    1
    36    15    40    1
    37    15    41    1
    38    16    17    2
    39    16    19    1
    40    17    42    1
    41    18    20    2
    42    18    43    1
    43    19    44    1
    44    19    45    1
    45    19    46    1
    46    20    21    1
    47    20    47    1
    48    21    22    1
    49    21    23    2
    50    22    48    1
    51    23    24    1
    52    23    49    1
