@<TRIPOS>MOLECULE
IMPHY008601
 53 55 0 0 0
SMALL
GASTEIGER

@<TRIPOS>ATOM
      1 O           4.6660   -2.7836    0.0000 O.3     1  UNL1       -0.3836
      2 O           6.3981   -1.7836    0.0000 O.2     1  UNL1       -0.2893
      3 O           3.7782    1.7479    0.0000 O.3     1  UNL1       -0.5031
      4 O           5.5442    2.7857    0.0000 O.3     1  UNL1       -0.5031
      5 O           9.0501    1.7548    0.0000 O.3     1  UNL1       -0.3944
      6 C           3.8000   -1.2836    0.0000 C.3     1  UNL1        0.0069
      7 C           3.8000   -0.2836    0.0000 C.3     1  UNL1        0.0033
      8 C           2.9061   -1.8182    0.0000 C.3     1  UNL1       -0.0285
      9 C           2.9061    0.2511    0.0000 C.3     1  UNL1       -0.0431
     10 C           2.0000   -1.3044    0.0000 C.3     1  UNL1       -0.0475
     11 C           4.6660   -1.7836    0.0000 C.3     1  UNL1        0.1216
     12 C           2.0000   -0.2628    0.0000 C.3     1  UNL1       -0.0518
     13 C           4.6660    0.2164    0.0000 C.ar    1  UNL1        0.0145
     14 C           3.8000    0.7164    0.0000 C.3     1  UNL1       -0.0550
     15 C           2.4161   -2.6900    0.0000 C.3     1  UNL1       -0.0594
     16 C           3.4160   -2.6784    0.0000 C.3     1  UNL1       -0.0594
     17 C           5.5321   -0.2836    0.0000 C.ar    1  UNL1        0.0277
     18 C           5.5321   -1.2836    0.0000 C.2     1  UNL1        0.1921
     19 C           4.6500    1.2579    0.0000 C.ar    1  UNL1        0.1630
     20 C           6.4421    0.2233    0.0000 C.ar    1  UNL1       -0.0437
     21 C           5.5480    1.7857    0.0000 C.ar    1  UNL1        0.1621
     22 C           6.4501    1.2648    0.0000 C.ar    1  UNL1        0.0034
     23 C           7.3180    1.7615    0.0000 C.3     1  UNL1        0.0081
     24 C           8.1821    1.2582    0.0000 C.3     1  UNL1        0.0509
     25 C           7.3219    2.7615    0.0000 C.3     1  UNL1       -0.0562
     26 H           3.8066   -2.1336    0.0000 H       1  UNL1        0.0344
     27 H           3.3107    0.7209    0.0000 H       1  UNL1        0.0274
     28 H           2.5124    0.7301    0.0000 H       1  UNL1        0.0274
     29 H           1.3891   -1.1983    0.0000 H       1  UNL1        0.0271
     30 H           1.7909   -1.8881    0.0000 H       1  UNL1        0.0271
     31 H           5.2030   -2.0936    0.0000 H       1  UNL1        0.0680
     32 H           1.7909    0.3209    0.0000 H       1  UNL1        0.0266
     33 H           1.3891   -0.3689    0.0000 H       1  UNL1        0.0266
     34 H           4.4200    0.7164    0.0000 H       1  UNL1        0.0238
     35 H           3.8000    1.3364    0.0000 H       1  UNL1        0.0238
     36 H           3.1800    0.7164    0.0000 H       1  UNL1        0.0238
     37 H           1.8756   -2.3862    0.0000 H       1  UNL1        0.0235
     38 H           2.1123   -3.2305    0.0000 H       1  UNL1        0.0235
     39 H           2.9566   -2.9938    0.0000 H       1  UNL1        0.0235
     40 H           2.8827   -2.9946    0.0000 H       1  UNL1        0.0235
     41 H           3.7322   -3.2118    0.0000 H       1  UNL1        0.0235
     42 H           3.9494   -2.3622    0.0000 H       1  UNL1        0.0235
     43 H           6.9754   -0.0929    0.0000 H       1  UNL1        0.0629
     44 H           5.2030   -3.0936    0.0000 H       1  UNL1        0.2104
     45 H           7.8562    2.0694    0.0000 H       1  UNL1        0.0370
     46 H           3.7711    2.3678    0.0000 H       1  UNL1        0.2923
     47 H           5.0060    3.0936    0.0000 H       1  UNL1        0.2923
     48 H           7.7818    0.7848    0.0000 H       1  UNL1        0.0563
     49 H           8.5788    0.7817    0.0000 H       1  UNL1        0.0563
     50 H           7.9419    2.7591    0.0000 H       1  UNL1        0.0236
     51 H           7.3243    3.3815    0.0000 H       1  UNL1        0.0236
     52 H           6.7019    2.7639    0.0000 H       1  UNL1        0.0236
     53 H           9.5858    1.4428    0.0000 H       1  UNL1        0.2094
@<TRIPOS>BOND
     1    11     1    1
     2     1    44    1
     3     2    18    2
     4     3    19    1
     5     3    46    1
     6     4    21    1
     7     4    47    1
     8     5    24    1
     9     5    53    1
    10     6     7    1
    11     6     8    1
    12     6    11    1
    13     6    26    1
    14     7     9    1
    15     7    13    1
    16     7    14    1
    17     8    10    1
    18     8    15    1
    19     8    16    1
    20     9    12    1
    21     9    27    1
    22     9    28    1
    23    10    12    1
    24    10    29    1
    25    10    30    1
    26    11    18    1
    27    11    31    1
    28    12    32    1
    29    12    33    1
    30    13    17   ar
    31    13    19   ar
    32    14    34    1
    33    14    35    1
    34    14    36    1
    35    15    37    1
    36    15    38    1
    37    15    39    1
    38    16    40    1
    39    16    41    1
    40    16    42    1
    41    17    18    1
    42    17    20   ar
    43    19    21   ar
    44    20    22   ar
    45    20    43    1
    46    21    22   ar
    47    22    23    1
    48    23    24    1
    49    23    25    1
    50    23    45    1
    51    24    48    1
    52    24    49    1
    53    25    50    1
    54    25    51    1
    55    25    52    1
