@<TRIPOS>MOLECULE
IMPHY005960
 27 27 0 0 0
SMALL
GASTEIGER

@<TRIPOS>ATOM
      1 O           4.5981    0.7500    0.0000 O.3     1  UNL1       -0.4277
      2 O           5.4641    2.2500    0.0000 O.2     1  UNL1       -0.2542
      3 C           2.8660   -0.2500    0.0000 C.3     1  UNL1       -0.0180
      4 C           3.7320   -0.7500    0.0000 C.ar    1  UNL1       -0.0024
      5 C           2.0000   -0.7500    0.0000 C.3     1  UNL1       -0.0585
      6 C           2.8660    0.7500    0.0000 C.3     1  UNL1       -0.0585
      7 C           4.5981   -0.2500    0.0000 C.ar    1  UNL1        0.1350
      8 C           3.7320   -1.7500    0.0000 C.ar    1  UNL1       -0.0546
      9 C           5.4641   -1.7500    0.0000 C.ar    1  UNL1       -0.0470
     10 C           5.4641   -0.7500    0.0000 C.ar    1  UNL1       -0.0160
     11 C           4.5981   -2.2500    0.0000 C.ar    1  UNL1       -0.0583
     12 C           6.3301   -2.2500    0.0000 C.3     1  UNL1       -0.0396
     13 C           5.4641    1.2500    0.0000 C.2     1  UNL1        0.2995
     14 H           2.8660   -0.8700    0.0000 H       1  UNL1        0.0345
     15 H           1.6900   -0.2131    0.0000 H       1  UNL1        0.0235
     16 H           1.4631   -1.0600    0.0000 H       1  UNL1        0.0235
     17 H           2.3100   -1.2869    0.0000 H       1  UNL1        0.0235
     18 H           3.4860    0.7500    0.0000 H       1  UNL1        0.0235
     19 H           2.8660    1.3700    0.0000 H       1  UNL1        0.0235
     20 H           2.2460    0.7500    0.0000 H       1  UNL1        0.0235
     21 H           3.1951   -2.0600    0.0000 H       1  UNL1        0.0622
     22 H           6.0010   -0.4400    0.0000 H       1  UNL1        0.0657
     23 H           4.5981   -2.8700    0.0000 H       1  UNL1        0.0620
     24 H           6.0201   -2.7869    0.0000 H       1  UNL1        0.0278
     25 H           6.8671   -2.5600    0.0000 H       1  UNL1        0.0278
     26 H           6.6401   -1.7131    0.0000 H       1  UNL1        0.0278
     27 H           6.0010    0.9400    0.0000 H       1  UNL1        0.1516
@<TRIPOS>BOND
     1     1     7    1
     2     1    13    1
     3     2    13    2
     4     3     4    1
     5     3     5    1
     6     3     6    1
     7     3    14    1
     8     4     7   ar
     9     4     8   ar
    10     5    15    1
    11     5    16    1
    12     5    17    1
    13     6    18    1
    14     6    19    1
    15     6    20    1
    16     7    10   ar
    17     8    11   ar
    18     8    21    1
    19     9    10   ar
    20     9    11   ar
    21     9    12    1
    22    10    22    1
    23    11    23    1
    24    12    24    1
    25    12    25    1
    26    12    26    1
    27    13    27    1
