@<TRIPOS>MOLECULE
IMPHY013111
 83 89 0 0 0
SMALL
GASTEIGER

@<TRIPOS>ATOM
      1 O           8.3362   -1.4486    0.0000 O.3     1  UNL1       -0.4800
      2 O           7.0125    2.0605    0.0000 O.3     1  UNL1       -0.4808
      3 O          10.1870    0.2250    0.0000 O.3     1  UNL1       -0.4528
      4 O           6.0533    4.6005    0.0000 O.3     1  UNL1       -0.3875
      5 O          10.5290    1.1647    0.0000 O.3     1  UNL1       -0.5062
      6 O           6.2451    1.5296    0.0000 O.3     1  UNL1       -0.5062
      7 O           9.7043    4.3102    0.0000 O.3     1  UNL1       -0.5063
      8 O           4.8061   -1.4728    0.0000 O.3     1  UNL1       -0.5065
      9 O          11.1719   -1.4807    0.0000 O.2     1  UNL1       -0.2449
     10 O           8.6007   -4.3601    0.0000 O.3     1  UNL1       -0.5033
     11 O          10.5703   -4.7074    0.0000 O.3     1  UNL1       -0.5033
     12 O           3.6918    0.6164    0.0000 O.3     1  UNL1       -0.5033
     13 O           2.4004    2.1435    0.0000 O.3     1  UNL1       -0.5033
     14 O          13.4835    1.6857    0.0000 O.3     1  UNL1       -0.5032
     15 O          14.0850   -1.7258    0.0000 O.3     1  UNL1       -0.5032
     16 O          14.7690    0.1536    0.0000 O.3     1  UNL1       -0.5009
     17 C           8.3362    0.5514    0.0000 C.3     1  UNL1        0.0640
     18 C           9.2022    0.0514    0.0000 C.3     1  UNL1        0.1553
     19 C           9.2022   -0.9486    0.0000 C.3     1  UNL1        0.1628
     20 C           8.6782    1.4911    0.0000 C.ar    1  UNL1        0.0474
     21 C           7.4702    0.0514    0.0000 C.ar    1  UNL1        0.0471
     22 C           8.0354    2.2571    0.0000 C.ar    1  UNL1        0.1356
     23 C           8.3774    3.1968    0.0000 C.ar    1  UNL1        0.0387
     24 C           6.6931    3.8320    0.0000 C.3     1  UNL1        0.1004
     25 C           7.7203    4.0050    0.0000 C.3     1  UNL1        0.0092
     26 C           6.3368    2.8532    0.0000 C.3     1  UNL1        0.1513
     27 C           7.4702   -0.9486    0.0000 C.ar    1  UNL1        0.1324
     28 C           9.6630    1.6647    0.0000 C.ar    1  UNL1        0.1277
     29 C           9.5442   -1.8883    0.0000 C.ar    1  UNL1       -0.0001
     30 C           6.5762    0.5861    0.0000 C.ar    1  UNL1        0.1277
     31 C           9.3622    3.3705    0.0000 C.ar    1  UNL1        0.1271
     32 C          10.0050    2.6044    0.0000 C.ar    1  UNL1        0.0221
     33 C           5.3527    2.6758    0.0000 C.ar    1  UNL1       -0.0012
     34 C           6.5762   -1.4833    0.0000 C.ar    1  UNL1        0.0221
     35 C           5.6702    0.0722    0.0000 C.ar    1  UNL1        0.0218
     36 C           8.9014   -2.6543    0.0000 C.ar    1  UNL1       -0.0097
     37 C          10.5290   -2.0620    0.0000 C.ar    1  UNL1       -0.0513
     38 C           5.6702   -0.9694    0.0000 C.ar    1  UNL1        0.1238
     39 C          10.8298   -0.5410    0.0000 C.2     1  UNL1        0.3398
     40 C           5.0144    1.7349    0.0000 C.ar    1  UNL1       -0.0098
     41 C           4.7070    3.4393    0.0000 C.ar    1  UNL1       -0.0513
     42 C           9.2435   -3.5940    0.0000 C.ar    1  UNL1        0.1586
     43 C          10.8711   -3.0016    0.0000 C.ar    1  UNL1       -0.0162
     44 C          10.2283   -3.7677    0.0000 C.ar    1  UNL1        0.1582
     45 C          11.8146   -0.3674    0.0000 C.ar    1  UNL1        0.0661
     46 C           4.0302    1.5574    0.0000 C.ar    1  UNL1        0.1586
     47 C           3.7228    3.2619    0.0000 C.ar    1  UNL1       -0.0162
     48 C           3.3845    2.3210    0.0000 C.ar    1  UNL1        0.1582
     49 C          12.4574   -1.1334    0.0000 C.ar    1  UNL1       -0.0023
     50 C          12.1566    0.5723    0.0000 C.ar    1  UNL1       -0.0023
     51 C          13.1414    0.7460    0.0000 C.ar    1  UNL1        0.1628
     52 C          13.4422   -0.9598    0.0000 C.ar    1  UNL1        0.1628
     53 C          13.7842   -0.0201    0.0000 C.ar    1  UNL1        0.2006
     54 H           9.1349    0.8421    0.0000 H       1  UNL1        0.0440
     55 H           9.3099    0.6620    0.0000 H       1  UNL1        0.0785
     56 H           9.8128   -0.8409    0.0000 H       1  UNL1        0.0822
     57 H           6.9085    4.4134    0.0000 H       1  UNL1        0.0637
     58 H           8.2612    4.3081    0.0000 H       1  UNL1        0.0342
     59 H           7.5142    4.5897    0.0000 H       1  UNL1        0.0342
     60 H           5.9374    3.3274    0.0000 H       1  UNL1        0.0811
     61 H          10.6156    2.7121    0.0000 H       1  UNL1        0.0691
     62 H           6.5834   -2.1032    0.0000 H       1  UNL1        0.0691
     63 H           5.1344    0.3843    0.0000 H       1  UNL1        0.0691
     64 H           8.2909   -2.5467    0.0000 H       1  UNL1        0.0659
     65 H          10.9276   -1.5870    0.0000 H       1  UNL1        0.0623
     66 H           6.2676    5.1823    0.0000 H       1  UNL1        0.2100
     67 H          11.0660    1.4747    0.0000 H       1  UNL1        0.2921
     68 H           5.4147    1.2614    0.0000 H       1  UNL1        0.0659
     69 H           4.9168    4.0228    0.0000 H       1  UNL1        0.0623
     70 H           5.6358    1.6444    0.0000 H       1  UNL1        0.2921
     71 H          11.4816   -3.1093    0.0000 H       1  UNL1        0.0655
     72 H          10.3149    4.4178    0.0000 H       1  UNL1        0.2921
     73 H           3.3225    3.7353    0.0000 H       1  UNL1        0.0655
     74 H           4.8085   -2.0928    0.0000 H       1  UNL1        0.2921
     75 H          12.2454   -1.7160    0.0000 H       1  UNL1        0.0663
     76 H          11.7581    1.0473    0.0000 H       1  UNL1        0.0663
     77 H           7.9901   -4.2524    0.0000 H       1  UNL1        0.2923
     78 H          10.1718   -5.1823    0.0000 H       1  UNL1        0.2923
     79 H           3.0816    0.5064    0.0000 H       1  UNL1        0.2923
     80 H           2.0000    2.6169    0.0000 H       1  UNL1        0.2923
     81 H          14.0940    1.7933    0.0000 H       1  UNL1        0.2923
     82 H          13.8730   -2.3084    0.0000 H       1  UNL1        0.2923
     83 H          14.9811    0.7362    0.0000 H       1  UNL1        0.2924
@<TRIPOS>BOND
     1     1    19    1
     2     1    27    1
     3     2    22    1
     4     2    26    1
     5    18     3    1
     6     3    39    1
     7    24     4    1
     8     4    66    1
     9     5    28    1
    10     5    67    1
    11     6    30    1
    12     6    70    1
    13     7    31    1
    14     7    72    1
    15     8    38    1
    16     8    74    1
    17     9    39    2
    18    10    42    1
    19    10    77    1
    20    11    44    1
    21    11    78    1
    22    12    46    1
    23    12    79    1
    24    13    48    1
    25    13    80    1
    26    14    51    1
    27    14    81    1
    28    15    52    1
    29    15    82    1
    30    16    53    1
    31    16    83    1
    32    17    18    1
    33    17    20    1
    34    17    21    1
    35    17    54    1
    36    18    19    1
    37    18    55    1
    38    19    29    1
    39    19    56    1
    40    20    22   ar
    41    20    28   ar
    42    21    27   ar
    43    21    30   ar
    44    22    23   ar
    45    23    25    1
    46    23    31   ar
    47    24    25    1
    48    24    26    1
    49    24    57    1
    50    25    58    1
    51    25    59    1
    52    26    33    1
    53    26    60    1
    54    27    34   ar
    55    28    32   ar
    56    29    36   ar
    57    29    37   ar
    58    30    35   ar
    59    31    32   ar
    60    32    61    1
    61    33    40   ar
    62    33    41   ar
    63    34    38   ar
    64    34    62    1
    65    35    38   ar
    66    35    63    1
    67    36    42   ar
    68    36    64    1
    69    37    43   ar
    70    37    65    1
    71    39    45    1
    72    40    46   ar
    73    40    68    1
    74    41    47   ar
    75    41    69    1
    76    42    44   ar
    77    43    44   ar
    78    43    71    1
    79    45    49   ar
    80    45    50   ar
    81    46    48   ar
    82    47    48   ar
    83    47    73    1
    84    49    52   ar
    85    49    75    1
    86    50    51   ar
    87    50    76    1
    88    51    53   ar
    89    52    53   ar
