@<TRIPOS>MOLECULE
IMPHY005507
 46 50 0 0 0
SMALL
GASTEIGER

@<TRIPOS>ATOM
      1 O           6.8440    1.2224    0.0000 O.3     1  UNL1       -0.3748
      2 O           3.9604   -0.4652    0.0000 O.2     1  UNL1       -0.2721
      3 O           4.6327   -2.5342    0.0000 O.3     1  UNL1       -0.2756
      4 N           3.6672    1.5741    0.0000 N.2     1  UNL1       -0.2885
      5 N           5.2205   -1.7252    0.0000 N.am    1  UNL1       -0.1476
      6 C           5.2205    2.0043    0.0000 C.3     1  UNL1        0.0128
      7 C           5.7205   -0.1864    0.0000 C.3     1  UNL1        0.1040
      8 C           4.6707    2.8325    0.0000 C.3     1  UNL1        0.0063
      9 C           4.5970    1.2224    0.0000 C.3     1  UNL1        0.0576
     10 C           6.6215    0.2475    0.0000 C.3     1  UNL1        0.0774
     11 C           4.8195    0.2475    0.0000 C.3     1  UNL1       -0.0096
     12 C           4.8999    0.9768    0.0000 C.3     1  UNL1       -0.0170
     13 C           6.2205    2.0043    0.0000 C.3     1  UNL1        0.0534
     14 C           3.7127    2.5672    0.0000 C.2     1  UNL1        0.0171
     15 C           6.5295   -0.7742    0.0000 C.ar    1  UNL1       -0.0061
     16 C           4.9115   -0.7742    0.0000 C.2     1  UNL1        0.2559
     17 C           6.2205   -1.7252    0.0000 C.ar    1  UNL1        0.0686
     18 C           2.9309    3.1907    0.0000 C.3     1  UNL1       -0.0173
     19 C           7.5449   -0.5419    0.0000 C.ar    1  UNL1       -0.0556
     20 C           6.9055   -2.5100    0.0000 C.ar    1  UNL1       -0.0377
     21 C           2.0000    2.8253    0.0000 C.3     1  UNL1       -0.0602
     22 C           8.2479   -1.3106    0.0000 C.ar    1  UNL1       -0.0614
     23 C           7.9260   -2.3013    0.0000 C.ar    1  UNL1       -0.0599
     24 C           5.0395   -3.4478    0.0000 C.3     1  UNL1        0.0629
     25 H           5.7505    2.6688    0.0000 H       1  UNL1        0.0350
     26 H           4.5666    3.6761    0.0000 H       1  UNL1        0.0365
     27 H           4.0671    0.5579    0.0000 H       1  UNL1        0.0548
     28 H           7.3873    0.6163    0.0000 H       1  UNL1        0.0610
     29 H           4.1996    0.2475    0.0000 H       1  UNL1        0.0300
     30 H           4.6816   -0.3570    0.0000 H       1  UNL1        0.0300
     31 H           4.2807    1.0089    0.0000 H       1  UNL1        0.0297
     32 H           4.7608    0.3726    0.0000 H       1  UNL1        0.0297
     33 H           6.7791    2.2733    0.0000 H       1  UNL1        0.0563
     34 H           6.0826    2.6087    0.0000 H       1  UNL1        0.0563
     35 H           3.3957    3.6009    0.0000 H       1  UNL1        0.0322
     36 H           2.6076    3.7197    0.0000 H       1  UNL1        0.0322
     37 H           7.7297    0.0499    0.0000 H       1  UNL1        0.0621
     38 H           6.7071   -3.0974    0.0000 H       1  UNL1        0.0637
     39 H           1.7735    3.4025    0.0000 H       1  UNL1        0.0233
     40 H           1.4229    2.5988    0.0000 H       1  UNL1        0.0233
     41 H           2.2265    2.2482    0.0000 H       1  UNL1        0.0233
     42 H           8.8538   -1.1794    0.0000 H       1  UNL1        0.0618
     43 H           8.3391   -2.7636    0.0000 H       1  UNL1        0.0618
     44 H           4.4731   -3.7000    0.0000 H       1  UNL1        0.0547
     45 H           5.2916   -4.0142    0.0000 H       1  UNL1        0.0547
     46 H           5.6059   -3.1956    0.0000 H       1  UNL1        0.0547
@<TRIPOS>BOND
     1     1    10    1
     2     1    13    1
     3     2    16    2
     4     3     5    1
     5     3    24    1
     6     4     9    1
     7     4    14    2
     8     5    16   am
     9     5    17    1
    10     6     8    1
    11     6     9    1
    12     6    13    1
    13     6    25    1
    14     7    10    1
    15     7    11    1
    16     7    15    1
    17     7    16    1
    18     8    12    1
    19     8    14    1
    20     8    26    1
    21     9    11    1
    22     9    27    1
    23    10    12    1
    24    10    28    1
    25    11    29    1
    26    11    30    1
    27    12    31    1
    28    12    32    1
    29    13    33    1
    30    13    34    1
    31    14    18    1
    32    15    17   ar
    33    15    19   ar
    34    17    20   ar
    35    18    21    1
    36    18    35    1
    37    18    36    1
    38    19    22   ar
    39    19    37    1
    40    20    23   ar
    41    20    38    1
    42    21    39    1
    43    21    40    1
    44    21    41    1
    45    22    23   ar
    46    22    42    1
    47    23    43    1
    48    24    44    1
    49    24    45    1
    50    24    46    1
