@<TRIPOS>MOLECULE
IMPHY011520
 45 49 0 0 0
SMALL
GASTEIGER

@<TRIPOS>ATOM
      1 O           2.1898    1.1169    0.0000 O.3     1  UNL1       -0.4611
      2 O           8.7924   -1.0038    0.0000 O.3     1  UNL1       -0.4562
      3 O           4.2898   -1.7956    0.0000 O.2     1  UNL1       -0.2971
      4 O           1.9486   -0.7151    0.0000 O.2     1  UNL1       -0.2505
      5 O           7.9588   -2.6083    0.0000 O.2     1  UNL1       -0.2505
      6 O          11.0810    1.1107    0.0000 O.2     1  UNL1       -0.4706
      7 C           5.8976    0.3533    0.0000 C.3     1  UNL1       -0.0211
      8 C           6.8408   -0.0888    0.0000 C.3     1  UNL1       -0.0115
      9 C           5.0686   -0.2059    0.0000 C.3     1  UNL1        0.0340
     10 C           6.9214   -1.1273    0.0000 C.3     1  UNL1        0.0688
     11 C           3.8476    0.6598    0.0000 C.3     1  UNL1        0.0695
     12 C           5.6220    1.3146    0.0000 C.3     1  UNL1       -0.0116
     13 C           3.5888    1.6257    0.0000 C.3     1  UNL1        0.1042
     14 C           7.7260    0.5385    0.0000 C.3     1  UNL1       -0.0049
     15 C           4.3254    2.6083    0.0000 C.3     1  UNL1       -0.0021
     16 C           6.0579   -1.7098    0.0000 C.3     1  UNL1        0.0196
     17 C           5.1252   -1.2460    0.0000 C.2     1  UNL1        0.1383
     18 C           7.1090    0.8745    0.0000 C.3     1  UNL1       -0.0584
     19 C           8.7084    0.0780    0.0000 C.3     1  UNL1        0.1315
     20 C           2.4486    0.1509    0.0000 C.2     1  UNL1        0.3113
     21 C           7.8929   -1.6105    0.0000 C.2     1  UNL1        0.3117
     22 C           9.5309    0.6467    0.0000 C.ar    1  UNL1        0.0304
     23 C           9.5543    1.6464    0.0000 C.ar    1  UNL1       -0.0172
     24 C          10.4745    0.3156    0.0000 C.ar    1  UNL1        0.0983
     25 C          10.5123    1.9332    0.0000 C.ar    1  UNL1        0.0921
     26 H           6.3972    1.0410    0.0000 H       1  UNL1        0.0314
     27 H           4.3639   -0.6812    0.0000 H       1  UNL1        0.0388
     28 H           6.9775   -1.9755    0.0000 H       1  UNL1        0.0423
     29 H           4.0676   -0.1613    0.0000 H       1  UNL1        0.0421
     30 H           5.6270    1.9345    0.0000 H       1  UNL1        0.0304
     31 H           6.2363    1.3983    0.0000 H       1  UNL1        0.0304
     32 H           3.3688    2.4467    0.0000 H       1  UNL1        0.0734
     33 H           7.2862    0.9756    0.0000 H       1  UNL1        0.0310
     34 H           8.0814    1.0466    0.0000 H       1  UNL1        0.0310
     35 H           4.0076    3.1407    0.0000 H       1  UNL1        0.0309
     36 H           4.9385    2.7003    0.0000 H       1  UNL1        0.0309
     37 H           6.4874   -2.1569    0.0000 H       1  UNL1        0.0350
     38 H           5.6909   -2.2095    0.0000 H       1  UNL1        0.0350
     39 H           6.5117    1.0408    0.0000 H       1  UNL1        0.0235
     40 H           7.2753    1.4718    0.0000 H       1  UNL1        0.0235
     41 H           7.7063    0.7082    0.0000 H       1  UNL1        0.0235
     42 H           8.6568    0.6958    0.0000 H       1  UNL1        0.0786
     43 H           9.0613    2.0225    0.0000 H       1  UNL1        0.0653
     44 H          10.6523   -0.2784    0.0000 H       1  UNL1        0.1033
     45 H          10.7176    2.5182    0.0000 H       1  UNL1        0.1029
@<TRIPOS>BOND
     1     1    13    1
     2     1    20    1
     3     2    19    1
     4     2    21    1
     5     3    17    2
     6     4    20    2
     7     5    21    2
     8     6    24   ar
     9     6    25   ar
    10     7     8    1
    11     7     9    1
    12     7    12    1
    13     7    26    1
    14     8    10    1
    15     8    14    1
    16     8    18    1
    17     9    11    1
    18     9    17    1
    19     9    27    1
    20    10    16    1
    21    10    21    1
    22    10    28    1
    23    11    15    1
    24    11    20    1
    25    11    29    1
    26    12    13    1
    27    12    30    1
    28    12    31    1
    29    13    15    1
    30    13    32    1
    31    14    19    1
    32    14    33    1
    33    14    34    1
    34    15    35    1
    35    15    36    1
    36    16    17    1
    37    16    37    1
    38    16    38    1
    39    18    39    1
    40    18    40    1
    41    18    41    1
    42    19    22    1
    43    19    42    1
    44    22    23   ar
    45    22    24   ar
    46    23    25   ar
    47    23    43    1
    48    24    44    1
    49    25    45    1
