@<TRIPOS>MOLECULE
IMPHY000026
 49 52 0 0 0
SMALL
GASTEIGER

@<TRIPOS>ATOM
      1 O           7.3184    0.2408    0.0000 O.3     1  UNL1       -0.4908
      2 O           7.0972    3.4534    0.0000 O.3     1  UNL1       -0.4526
      3 O           5.7034    4.2581    0.0000 O.3     1  UNL1       -0.4526
      4 O           7.3506   -1.8506    0.0000 O.3     1  UNL1       -0.4914
      5 N           2.8641   -3.3612    0.0000 N.3     1  UNL1       -0.3080
      6 C           4.6122   -0.2829    0.0000 C.ar    1  UNL1       -0.0103
      7 C           5.5102    0.2448    0.0000 C.ar    1  UNL1        0.0355
      8 C           4.6038   -1.3679    0.0000 C.ar    1  UNL1       -0.0347
      9 C           5.4942    1.2863    0.0000 C.ar    1  UNL1       -0.0029
     10 C           3.7359   -1.8646    0.0000 C.3     1  UNL1       -0.0142
     11 C           4.6282    1.7863    0.0000 C.ar    1  UNL1       -0.0135
     12 C           6.4622   -0.2758    0.0000 C.ar    1  UNL1        0.1697
     13 C           3.7320   -2.8646    0.0000 C.3     1  UNL1        0.0023
     14 C           3.7101    0.2379    0.0000 C.ar    1  UNL1       -0.0531
     15 C           5.5435   -1.9104    0.0000 C.ar    1  UNL1       -0.0125
     16 C           6.4789   -1.3607    0.0000 C.ar    1  UNL1        0.1624
     17 C           3.7182    1.2795    0.0000 C.ar    1  UNL1       -0.0533
     18 C           6.3602    1.7863    0.0000 C.ar    1  UNL1       -0.0077
     19 C           4.6282    2.7863    0.0000 C.ar    1  UNL1       -0.0084
     20 C           6.3602    2.7863    0.0000 C.ar    1  UNL1        0.1668
     21 C           5.4942    3.2863    0.0000 C.ar    1  UNL1        0.1668
     22 C           6.6921    4.3612    0.0000 C.3     1  UNL1        0.2332
     23 C           2.8602   -4.3612    0.0000 C.3     1  UNL1       -0.0130
     24 C           2.0000   -2.8579    0.0000 C.3     1  UNL1       -0.0130
     25 C           8.1939   -0.2424    0.0000 C.3     1  UNL1        0.0790
     26 C           7.3622   -2.8506    0.0000 C.3     1  UNL1        0.0790
     27 H           3.5261   -1.2811    0.0000 H       1  UNL1        0.0326
     28 H           3.1249   -1.9699    0.0000 H       1  UNL1        0.0326
     29 H           3.9418   -3.4480    0.0000 H       1  UNL1        0.0429
     30 H           4.3430   -2.7592    0.0000 H       1  UNL1        0.0429
     31 H           3.1720   -0.0700    0.0000 H       1  UNL1        0.0624
     32 H           5.5459   -2.5304    0.0000 H       1  UNL1        0.0658
     33 H           3.1848    1.5957    0.0000 H       1  UNL1        0.0624
     34 H           6.8971    1.4763    0.0000 H       1  UNL1        0.0662
     35 H           4.0912    3.0963    0.0000 H       1  UNL1        0.0661
     36 H           7.2817    4.5530    0.0000 H       1  UNL1        0.1166
     37 H           6.5634    4.9677    0.0000 H       1  UNL1        0.1166
     38 H           2.2402   -4.3588    0.0000 H       1  UNL1        0.0391
     39 H           2.8578   -4.9812    0.0000 H       1  UNL1        0.0391
     40 H           2.3121   -2.3221    0.0000 H       1  UNL1        0.0391
     41 H           1.4643   -2.5458    0.0000 H       1  UNL1        0.0391
     42 H           1.6879   -3.3936    0.0000 H       1  UNL1        0.0391
     43 H           3.4802   -4.3636    0.0000 H       1  UNL1        0.0391
     44 H           7.8943   -0.7852    0.0000 H       1  UNL1        0.0660
     45 H           8.7367   -0.5420    0.0000 H       1  UNL1        0.0660
     46 H           8.4935    0.3004    0.0000 H       1  UNL1        0.0660
     47 H           6.7422   -2.8577    0.0000 H       1  UNL1        0.0660
     48 H           7.3694   -3.4705    0.0000 H       1  UNL1        0.0660
     49 H           7.9822   -2.8434    0.0000 H       1  UNL1        0.0660
@<TRIPOS>BOND
     1     1    12    1
     2     1    25    1
     3     2    20    1
     4     2    22    1
     5     3    21    1
     6     3    22    1
     7     4    16    1
     8     4    26    1
     9     5    13    1
    10     5    23    1
    11     5    24    1
    12     6     7   ar
    13     6     8   ar
    14     6    14   ar
    15     7     9   ar
    16     7    12   ar
    17     8    10    1
    18     8    15   ar
    19     9    11   ar
    20     9    18   ar
    21    10    13    1
    22    10    27    1
    23    10    28    1
    24    11    17   ar
    25    11    19   ar
    26    12    16   ar
    27    13    29    1
    28    13    30    1
    29    14    17   ar
    30    14    31    1
    31    15    16   ar
    32    15    32    1
    33    17    33    1
    34    18    20   ar
    35    18    34    1
    36    19    21   ar
    37    19    35    1
    38    20    21   ar
    39    22    36    1
    40    22    37    1
    41    23    38    1
    42    23    39    1
    43    23    43    1
    44    24    40    1
    45    24    41    1
    46    24    42    1
    47    25    44    1
    48    25    45    1
    49    25    46    1
    50    26    47    1
    51    26    48    1
    52    26    49    1
