@<TRIPOS>MOLECULE
IMPHY015480
 21 20 0 0 0
SMALL
GASTEIGER

@<TRIPOS>ATOM
      1 S           6.3301    0.2500    0.0000 S.3     1  UNL1       -0.0818
      2 S           5.4641   -0.2500    0.0000 S.3     1  UNL1       -0.0239
      3 S           4.5981    0.2500    0.0000 S.3     1  UNL1       -0.0778
      4 C           8.0622    0.2500    0.0000 C.3     1  UNL1       -0.0460
      5 C           7.1962   -0.2500    0.0000 C.3     1  UNL1        0.0044
      6 C           8.9282   -0.2500    0.0000 C.3     1  UNL1       -0.0645
      7 C           3.7320   -0.2500    0.0000 C.3     1  UNL1        0.0225
      8 C           2.8660    0.2500    0.0000 C.2     1  UNL1       -0.0805
      9 C           2.0000   -0.2500    0.0000 C.2     1  UNL1       -0.1018
     10 H           8.4607    0.7249    0.0000 H       1  UNL1        0.0271
     11 H           7.6636    0.7249    0.0000 H       1  UNL1        0.0271
     12 H           6.7976   -0.7249    0.0000 H       1  UNL1        0.0385
     13 H           7.5947   -0.7249    0.0000 H       1  UNL1        0.0385
     14 H           8.6182   -0.7869    0.0000 H       1  UNL1        0.0230
     15 H           9.4651   -0.5600    0.0000 H       1  UNL1        0.0230
     16 H           9.2382    0.2869    0.0000 H       1  UNL1        0.0230
     17 H           3.3335   -0.7249    0.0000 H       1  UNL1        0.0427
     18 H           4.1306   -0.7249    0.0000 H       1  UNL1        0.0427
     19 H           2.8660    0.8700    0.0000 H       1  UNL1        0.0575
     20 H           1.4631    0.0600    0.0000 H       1  UNL1        0.0532
     21 H           2.0000   -0.8700    0.0000 H       1  UNL1        0.0532
@<TRIPOS>BOND
     1     1     2    1
     2     1     5    1
     3     2     3    1
     4     3     7    1
     5     4     5    1
     6     4     6    1
     7     4    10    1
     8     4    11    1
     9     5    12    1
    10     5    13    1
    11     6    14    1
    12     6    15    1
    13     6    16    1
    14     7     8    1
    15     7    17    1
    16     7    18    1
    17     8     9    2
    18     8    19    1
    19     9    20    1
    20     9    21    1
