@<TRIPOS>MOLECULE
IMPHY010783
 54 61 0 0 0
SMALL
GASTEIGER

@<TRIPOS>ATOM
      1 O          16.8831   -5.1852    0.0000 O.3     1  UNL1       -0.3347
      2 C          16.8831   -3.8733    0.0000 C.3     1  UNL1        0.2151
      3 O          15.7898   -3.2173    0.0000 O.3     1  UNL1       -0.3321
      4 C          15.8055   -1.9210    0.0000 C.3     1  UNL1        0.1447
      5 C          16.9300   -1.2963    0.0000 C.3     1  UNL1        0.0324
      6 C          18.0232   -1.9523    0.0000 C.3     1  UNL1        0.0405
      7 C          18.0232   -3.2486    0.0000 C.3     1  UNL1        0.2029
      8 C          15.7586   -5.8411    0.0000 C.3     1  UNL1        0.1175
      9 C          14.6497   -5.1852    0.0000 C.3     1  UNL1        0.0318
     10 C          13.5096   -5.8411    0.0000 C.3     1  UNL1       -0.0009
     11 C          13.5096   -7.1374    0.0000 C.3     1  UNL1       -0.0166
     12 C          12.3695   -7.8090    0.0000 C.3     1  UNL1       -0.0011
     13 C          11.2606   -7.1374    0.0000 C.3     1  UNL1       -0.0004
     14 C          10.1205   -7.8090    0.0000 C.3     1  UNL1       -0.0009
     15 C          10.1205   -9.0741    0.0000 C.3     1  UNL1        0.0116
     16 C          11.2606   -9.7300    0.0000 C.3     1  UNL1        0.1483
     17 C          12.3695   -9.0741    0.0000 C.3     1  UNL1        0.0323
     18 C          14.6497   -3.8733    0.0000 C.3     1  UNL1        0.0565
     19 C          15.7586   -7.1374    0.0000 C.3     1  UNL1        0.0257
     20 C          12.3695   -5.1852    0.0000 C.3     1  UNL1       -0.0002
     21 C          11.2606   -5.8411    0.0000 C.3     1  UNL1       -0.0000
     22 C           9.0116   -7.1374    0.0000 C.3     1  UNL1        0.0023
     23 C           7.8715   -7.8090    0.0000 C.3     1  UNL1        0.0296
     24 C           7.8715   -9.0741    0.0000 C.3     1  UNL1        0.1176
     25 C           9.0116   -9.7300    0.0000 C.3     1  UNL1        0.0281
     26 C          16.9612    0.0000    0.0000 C.3     1  UNL1        0.0027
     27 O          19.1477   -3.9201    0.0000 O.3     1  UNL1       -0.2179
     28 C          13.5096   -4.5449    0.0000 C.3     1  UNL1       -0.0002
     29 C          10.1205   -6.4815    0.0000 C.3     1  UNL1       -0.0002
     30 O          11.2606  -11.0420    0.0000 O.3     1  UNL1       -0.2235
     31 C          13.5096   -3.2486    0.0000 C.3     1  UNL1        0.0052
     32 O           6.7626   -9.7300    0.0000 O.3     1  UNL1       -0.3312
     33 C           5.6225   -9.0741    0.0000 C.3     1  UNL1        0.2660
     34 O           5.6225   -7.7778    0.0000 O.3     1  UNL1       -0.3284
     35 C           4.4980   -7.1374    0.0000 C.3     1  UNL1        0.1508
     36 C           3.3891   -7.7778    0.0000 C.3     1  UNL1        0.2117
     37 C           3.3891   -9.0741    0.0000 C.3     1  UNL1        0.2165
     38 C           4.4980   -9.7300    0.0000 C.3     1  UNL1        0.2066
     39 C           4.4980   -5.8411    0.0000 C.3     1  UNL1        0.0350
     40 O           2.2490   -7.1374    0.0000 O.3     1  UNL1       -0.2177
     41 O           2.2490   -9.7300    0.0000 O.3     1  UNL1       -0.2175
     42 O           4.4980  -11.0420    0.0000 O.3     1  UNL1       -0.3231
     43 C           3.3891  -11.6667    0.0000 C.3     1  UNL1        0.2695
     44 O           2.2490  -11.0420    0.0000 O.3     1  UNL1       -0.3284
     45 C           1.1401  -11.6667    0.0000 C.3     1  UNL1        0.1508
     46 C           1.1401  -12.9942    0.0000 C.3     1  UNL1        0.2118
     47 C           2.2490  -13.6346    0.0000 C.3     1  UNL1        0.2197
     48 C           3.3891  -12.9942    0.0000 C.3     1  UNL1        0.2406
     49 C           0.0000  -11.0420    0.0000 C.3     1  UNL1        0.0350
     50 O           0.0000  -13.6346    0.0000 O.3     1  UNL1       -0.2177
     51 O           2.2490  -14.9309    0.0000 O.3     1  UNL1       -0.2174
     52 O           4.4980  -13.6346    0.0000 O.3     1  UNL1       -0.2149
     53 H          10.1205  -10.4016    0.0000 H       1  UNL1        0.0343
     54 H          13.5096   -8.4337    0.0000 H       1  UNL1        0.0319
@<TRIPOS>BOND
     1     1     8    1
     2     2     1    1
     3     2     7    1
     4     2     3    1
     5     2    18    1
     6     3     4    1
     7     4     5    1
     8     5     6    1
     9     5    26    1
    10     6     7    1
    11     7    27    1
    12     8    19    1
    13     8     9    1
    14     9    10    1
    15     9    18    1
    16    10    20    1
    17    10    11    1
    18    10    28    1
    19    11    12    1
    20    11    54    1
    21    11    19    1
    22    12    17    1
    23    12    13    1
    24    13    14    1
    25    13    21    1
    26    14    22    1
    27    14    15    1
    28    14    29    1
    29    15    25    1
    30    15    16    1
    31    15    53    1
    32    16    17    1
    33    16    30    1
    34    18    31    1
    35    20    21    1
    36    22    23    1
    37    23    24    1
    38    24    25    1
    39    24    32    1
    40    33    32    1
    41    33    38    1
    42    33    34    1
    43    34    35    1
    44    35    36    1
    45    35    39    1
    46    36    37    1
    47    36    40    1
    48    37    38    1
    49    37    41    1
    50    38    42    1
    51    43    42    1
    52    43    48    1
    53    43    44    1
    54    44    45    1
    55    45    46    1
    56    45    49    1
    57    46    47    1
    58    46    50    1
    59    47    48    1
    60    47    51    1
    61    48    52    1
