@<TRIPOS>MOLECULE
IMPHY017430
 38 39 0 0 0
SMALL
GASTEIGER

@<TRIPOS>ATOM
      1 O           5.8660    1.5670    0.0000 O.2     1  UNL1       -0.2962
      2 C           6.7320   -0.9330    0.0000 C.3     1  UNL1       -0.0303
      3 C           6.7320    0.0670    0.0000 C.3     1  UNL1        0.0215
      4 C           7.5986   -0.4330    0.0000 C.3     1  UNL1       -0.0397
      5 C           5.0000   -0.9330    0.0000 C.3     1  UNL1       -0.0191
      6 C           5.8660   -1.4330    0.0000 C.3     1  UNL1       -0.0432
      7 C           5.0000    0.0670    0.0000 C.3     1  UNL1        0.0498
      8 C           5.8660    0.5670    0.0000 C.2     1  UNL1        0.1467
      9 C           4.5000   -1.7990    0.0000 C.3     1  UNL1       -0.0586
     10 C           4.0603   -1.2749    0.0000 C.3     1  UNL1       -0.0586
     11 C           4.5000    0.9330    0.0000 C.3     1  UNL1       -0.0488
     12 C           4.0000    0.0670    0.0000 C.2     1  UNL1       -0.0703
     13 C           3.5000    0.9330    0.0000 C.2     1  UNL1       -0.0624
     14 C           2.5000    0.9330    0.0000 C.2     1  UNL1       -0.0578
     15 C           2.0000    1.7990    0.0000 C.3     1  UNL1       -0.0403
     16 C           2.0000    0.0670    0.0000 C.2     1  UNL1       -0.0958
     17 H           7.0420   -1.4700    0.0000 H       1  UNL1        0.0308
     18 H           7.0420    0.6040    0.0000 H       1  UNL1        0.0380
     19 H           7.9971   -0.9080    0.0000 H       1  UNL1        0.0275
     20 H           7.9971    0.0420    0.0000 H       1  UNL1        0.0275
     21 H           5.4675   -1.9080    0.0000 H       1  UNL1        0.0274
     22 H           6.2646   -1.9080    0.0000 H       1  UNL1        0.0274
     23 H           3.9631   -1.4890    0.0000 H       1  UNL1        0.0235
     24 H           4.1900   -2.3360    0.0000 H       1  UNL1        0.0235
     25 H           5.0369   -2.1090    0.0000 H       1  UNL1        0.0235
     26 H           3.8483   -0.6923    0.0000 H       1  UNL1        0.0235
     27 H           3.4776   -1.4869    0.0000 H       1  UNL1        0.0235
     28 H           4.2723   -1.8576    0.0000 H       1  UNL1        0.0235
     29 H           5.0369    1.2430    0.0000 H       1  UNL1        0.0242
     30 H           4.1900    1.4700    0.0000 H       1  UNL1        0.0242
     31 H           3.9631    0.6230    0.0000 H       1  UNL1        0.0242
     32 H           3.5251   -0.3316    0.0000 H       1  UNL1        0.0582
     33 H           3.8100    1.4700    0.0000 H       1  UNL1        0.0617
     34 H           2.5369    2.1090    0.0000 H       1  UNL1        0.0277
     35 H           1.6900    2.3360    0.0000 H       1  UNL1        0.0277
     36 H           1.4631    1.4890    0.0000 H       1  UNL1        0.0277
     37 H           1.3800    0.0670    0.0000 H       1  UNL1        0.0537
     38 H           2.3100   -0.4699    0.0000 H       1  UNL1        0.0537
@<TRIPOS>BOND
     1     1     8    2
     2     2     3    1
     3     2     4    1
     4     2     6    1
     5     2    17    1
     6     3     4    1
     7     3     8    1
     8     3    18    1
     9     4    19    1
    10     4    20    1
    11     5     6    1
    12     5     7    1
    13     5     9    1
    14     5    10    1
    15     6    21    1
    16     6    22    1
    17     7     8    1
    18     7    11    1
    19     7    12    1
    20     9    23    1
    21     9    24    1
    22     9    25    1
    23    10    26    1
    24    10    27    1
    25    10    28    1
    26    11    29    1
    27    11    30    1
    28    11    31    1
    29    12    13    2
    30    12    32    1
    31    13    14    1
    32    13    33    1
    33    14    15    1
    34    14    16    2
    35    15    34    1
    36    15    35    1
    37    15    36    1
    38    16    37    1
    39    16    38    1
