@<TRIPOS>MOLECULE
IMPHY002800
 30 32 0 0 0
SMALL
GASTEIGER

@<TRIPOS>ATOM
      1 O           4.8936   -2.0894    0.0000 O.2     1  UNL1       -0.4567
      2 O           2.3100   -1.2846    0.0000 O.3     1  UNL1       -0.3814
      3 O           6.6898    0.7569    0.0000 O.2     1  UNL1       -0.4214
      4 O           7.5840    2.2846    0.0000 O.2     1  UNL1       -0.2452
      5 C           3.3100   -1.2846    0.0000 C.3     1  UNL1        0.1177
      6 C           4.3100   -1.2846    0.0000 C.ar    1  UNL1        0.1372
      7 C           5.8398   -0.7846    0.0000 C.ar    1  UNL1        0.0634
      8 C           4.8936   -0.4799    0.0000 C.ar    1  UNL1       -0.0065
      9 C           5.8398   -1.7846    0.0000 C.ar    1  UNL1        0.1389
     10 C           6.7058   -0.2846    0.0000 C.ar    1  UNL1        0.1498
     11 C           3.3100   -2.2846    0.0000 C.3     1  UNL1       -0.0292
     12 C           3.3100   -0.2846    0.0000 C.3     1  UNL1       -0.0292
     13 C           7.5719   -0.7846    0.0000 C.ar    1  UNL1        0.0184
     14 C           6.7058   -2.2846    0.0000 C.ar    1  UNL1       -0.0180
     15 C           7.5719   -1.7846    0.0000 C.ar    1  UNL1       -0.0476
     16 C           8.4819   -0.2778    0.0000 C.ar    1  UNL1       -0.0443
     17 C           8.4899    0.7638    0.0000 C.ar    1  UNL1        0.0236
     18 C           7.5878    1.2846    0.0000 C.ar    1  UNL1        0.3372
     19 H           4.7010    0.1094    0.0000 H       1  UNL1        0.0660
     20 H           2.6900   -2.2846    0.0000 H       1  UNL1        0.0261
     21 H           3.3100   -2.9046    0.0000 H       1  UNL1        0.0261
     22 H           3.9300   -2.2846    0.0000 H       1  UNL1        0.0261
     23 H           3.9300   -0.2846    0.0000 H       1  UNL1        0.0261
     24 H           3.3100    0.3354    0.0000 H       1  UNL1        0.0261
     25 H           2.6900   -0.2846    0.0000 H       1  UNL1        0.0261
     26 H           6.7058   -2.9046    0.0000 H       1  UNL1        0.0655
     27 H           8.1088   -2.0946    0.0000 H       1  UNL1        0.0626
     28 H           2.0000   -1.8216    0.0000 H       1  UNL1        0.2107
     29 H           9.0152   -0.5940    0.0000 H       1  UNL1        0.0627
     30 H           9.0280    1.0718    0.0000 H       1  UNL1        0.0689
@<TRIPOS>BOND
     1     1     6   ar
     2     1     9   ar
     3     2     5    1
     4     2    28    1
     5     3    10   ar
     6     3    18   ar
     7     4    18    2
     8     5     6    1
     9     5    11    1
    10     5    12    1
    11     6     8   ar
    12     7     8   ar
    13     7     9   ar
    14     7    10   ar
    15     8    19    1
    16     9    14   ar
    17    10    13   ar
    18    11    20    1
    19    11    21    1
    20    11    22    1
    21    12    23    1
    22    12    24    1
    23    12    25    1
    24    13    15   ar
    25    13    16   ar
    26    14    15   ar
    27    14    26    1
    28    15    27    1
    29    16    17   ar
    30    16    29    1
    31    17    18   ar
    32    17    30    1
