@<TRIPOS>MOLECULE
IMPHY007363
 39 41 0 0 0
SMALL
GASTEIGER

@<TRIPOS>ATOM
      1 O           5.1350   -0.6296    0.0000 O.3     1  UNL1       -0.3313
      2 O           6.8671   -0.6296    0.0000 O.3     1  UNL1       -0.4607
      3 O           5.1350   -3.6296    0.0000 O.3     1  UNL1       -0.3864
      4 O           3.4030   -2.6296    0.0000 O.3     1  UNL1       -0.3865
      5 O           6.8671   -2.6296    0.0000 O.3     1  UNL1       -0.3829
      6 O           2.5369   -1.1296    0.0000 O.3     1  UNL1       -0.3924
      7 O           8.6431    2.3772    0.0000 O.2     1  UNL1       -0.4220
      8 O           9.5191    3.9155    0.0000 O.2     1  UNL1       -0.2452
      9 C           5.1350   -2.6296    0.0000 C.3     1  UNL1        0.1152
     10 C           4.2690   -2.1296    0.0000 C.3     1  UNL1        0.1120
     11 C           6.0010   -2.1296    0.0000 C.3     1  UNL1        0.1454
     12 C           4.2690   -1.1296    0.0000 C.3     1  UNL1        0.1140
     13 C           6.0010   -1.1296    0.0000 C.3     1  UNL1        0.2308
     14 C           3.4030   -0.6296    0.0000 C.3     1  UNL1        0.0731
     15 C           6.8671    0.3704    0.0000 C.ar    1  UNL1        0.1275
     16 C           7.7331    0.8704    0.0000 C.ar    1  UNL1        0.0232
     17 C           6.0010    0.8704    0.0000 C.ar    1  UNL1       -0.0190
     18 C           7.7331    1.8704    0.0000 C.ar    1  UNL1        0.1425
     19 C           6.8671    2.3704    0.0000 C.ar    1  UNL1        0.0178
     20 C           6.0010    1.8704    0.0000 C.ar    1  UNL1       -0.0476
     21 C           6.8510    3.4119    0.0000 C.ar    1  UNL1       -0.0443
     22 C           7.7490    3.9396    0.0000 C.ar    1  UNL1        0.0236
     23 C           8.6511    3.4188    0.0000 C.ar    1  UNL1        0.3372
     24 H           5.6720   -2.9396    0.0000 H       1  UNL1        0.0648
     25 H           4.2690   -2.7496    0.0000 H       1  UNL1        0.0647
     26 H           6.5380   -1.8196    0.0000 H       1  UNL1        0.0683
     27 H           4.2690   -0.5096    0.0000 H       1  UNL1        0.0647
     28 H           6.0010   -0.5096    0.0000 H       1  UNL1        0.1084
     29 H           3.8015   -0.1547    0.0000 H       1  UNL1        0.0584
     30 H           3.0044   -0.1547    0.0000 H       1  UNL1        0.0584
     31 H           4.5981   -3.9396    0.0000 H       1  UNL1        0.2100
     32 H           3.4030   -3.2496    0.0000 H       1  UNL1        0.2100
     33 H           7.4040   -2.3196    0.0000 H       1  UNL1        0.2102
     34 H           2.0000   -0.8196    0.0000 H       1  UNL1        0.2095
     35 H           8.2700    0.5604    0.0000 H       1  UNL1        0.0691
     36 H           5.4641    0.5604    0.0000 H       1  UNL1        0.0654
     37 H           5.4641    2.1804    0.0000 H       1  UNL1        0.0626
     38 H           6.3105    3.7156    0.0000 H       1  UNL1        0.0627
     39 H           7.7466    4.5596    0.0000 H       1  UNL1        0.0689
@<TRIPOS>BOND
     1     1    12    1
     2     1    13    1
     3    13     2    1
     4     2    15    1
     5     9     3    1
     6     3    31    1
     7    10     4    1
     8     4    32    1
     9    11     5    1
    10     5    33    1
    11     6    14    1
    12     6    34    1
    13     7    18   ar
    14     7    23   ar
    15     8    23    2
    16     9    10    1
    17     9    11    1
    18     9    24    1
    19    10    12    1
    20    10    25    1
    21    11    13    1
    22    11    26    1
    23    12    14    1
    24    12    27    1
    25    13    28    1
    26    14    29    1
    27    14    30    1
    28    15    16   ar
    29    15    17   ar
    30    16    18   ar
    31    16    35    1
    32    17    20   ar
    33    17    36    1
    34    18    19   ar
    35    19    20   ar
    36    19    21   ar
    37    20    37    1
    38    21    22   ar
    39    21    38    1
    40    22    23   ar
    41    22    39    1
