@<TRIPOS>MOLECULE
IMPHY005041
 67 70 0 0 0
SMALL
GASTEIGER

@<TRIPOS>ATOM
      1 O           9.3900   -0.2981    0.0000 O.3     1  UNL1       -0.4807
      2 O           7.6300    2.7366    0.0000 O.3     1  UNL1       -0.5057
      3 O           5.8980   -0.2634    0.0000 O.3     1  UNL1       -0.5055
      4 O           6.5820    3.6160    0.0000 O.3     1  UNL1       -0.5060
      5 O           3.9284    1.3893    0.0000 O.3     1  UNL1       -0.5055
      6 O           8.4960   -1.7634    0.0000 O.2     1  UNL1       -0.2870
      7 O           3.3268    4.8008    0.0000 O.3     1  UNL1       -0.5056
      8 O           2.3008    1.9817    0.0000 O.2     1  UNL1       -0.2921
      9 O           3.2999   -4.7634    0.0000 O.3     1  UNL1       -0.5068
     10 C          10.2961    0.2158    0.0000 C.3     1  UNL1        0.1235
     11 C           8.4960    0.2366    0.0000 C.ar    1  UNL1        0.1467
     12 C           8.4960    1.2366    0.0000 C.ar    1  UNL1        0.0591
     13 C           6.7640    1.2366    0.0000 C.ar    1  UNL1        0.0414
     14 C           5.8980    1.7366    0.0000 C.3     1  UNL1        0.0115
     15 C           7.6300    1.7366    0.0000 C.ar    1  UNL1        0.1344
     16 C          10.2961    1.2574    0.0000 C.2     1  UNL1       -0.0408
     17 C           7.6300   -0.2634    0.0000 C.ar    1  UNL1        0.1057
     18 C           6.7640    0.2366    0.0000 C.ar    1  UNL1        0.1382
     19 C           9.3900    1.7713    0.0000 C.2     1  UNL1       -0.0478
     20 C          11.2961    0.2119    0.0000 C.3     1  UNL1       -0.0215
     21 C          10.7927   -0.6522    0.0000 C.3     1  UNL1       -0.0215
     22 C           5.2552    2.5026    0.0000 C.ar    1  UNL1        0.0411
     23 C           5.5972    3.4423    0.0000 C.ar    1  UNL1        0.1302
     24 C           4.2704    2.3290    0.0000 C.ar    1  UNL1        0.1378
     25 C           7.6300   -1.2634    0.0000 C.2     1  UNL1        0.1931
     26 C           4.9544    4.2084    0.0000 C.ar    1  UNL1        0.0335
     27 C           3.6276    3.0950    0.0000 C.ar    1  UNL1        0.1005
     28 C           3.9696    4.0347    0.0000 C.ar    1  UNL1        0.1372
     29 C           5.2964    5.1481    0.0000 C.3     1  UNL1       -0.0327
     30 C           6.7640   -1.7634    0.0000 C.2     1  UNL1       -0.0135
     31 C           2.6428    2.9214    0.0000 C.2     1  UNL1        0.1671
     32 C           6.7640   -2.7634    0.0000 C.2     1  UNL1       -0.0510
     33 C           2.0000    3.6874    0.0000 C.3     1  UNL1       -0.0012
     34 C           5.8980   -3.2634    0.0000 C.ar    1  UNL1       -0.0247
     35 C           5.0320   -2.7634    0.0000 C.ar    1  UNL1       -0.0511
     36 C           5.8980   -4.2634    0.0000 C.ar    1  UNL1       -0.0511
     37 C           4.1659   -3.2634    0.0000 C.ar    1  UNL1       -0.0196
     38 C           5.0320   -4.7634    0.0000 C.ar    1  UNL1       -0.0196
     39 C           4.1659   -4.2634    0.0000 C.ar    1  UNL1        0.1169
     40 H           5.3040    1.5588    0.0000 H       1  UNL1        0.0366
     41 H           6.2965    2.2116    0.0000 H       1  UNL1        0.0366
     42 H          10.8318    1.5695    0.0000 H       1  UNL1        0.0611
     43 H           9.3828    2.3912    0.0000 H       1  UNL1        0.0624
     44 H          11.2937   -0.4081    0.0000 H       1  UNL1        0.0271
     45 H          11.9161    0.2095    0.0000 H       1  UNL1        0.0271
     46 H          11.2984    0.8319    0.0000 H       1  UNL1        0.0271
     47 H          10.2546   -0.9601    0.0000 H       1  UNL1        0.0271
     48 H          11.1006   -1.1903    0.0000 H       1  UNL1        0.0271
     49 H          11.3308   -0.3442    0.0000 H       1  UNL1        0.0271
     50 H           7.0931    3.0466    0.0000 H       1  UNL1        0.2922
     51 H           5.3610    0.0466    0.0000 H       1  UNL1        0.2922
     52 H           5.8790    4.9360    0.0000 H       1  UNL1        0.0280
     53 H           5.5085    5.7307    0.0000 H       1  UNL1        0.0280
     54 H           4.7138    5.3601    0.0000 H       1  UNL1        0.0280
     55 H           6.2271   -1.4534    0.0000 H       1  UNL1        0.0656
     56 H           6.7941    4.1986    0.0000 H       1  UNL1        0.2922
     57 H           3.3178    1.2816    0.0000 H       1  UNL1        0.2922
     58 H           7.3009   -3.0734    0.0000 H       1  UNL1        0.0625
     59 H           2.4750    4.0860    0.0000 H       1  UNL1        0.0309
     60 H           1.6015    4.1624    0.0000 H       1  UNL1        0.0309
     61 H           1.5250    3.2889    0.0000 H       1  UNL1        0.0309
     62 H           3.5389    5.3834    0.0000 H       1  UNL1        0.2922
     63 H           5.0320   -2.1434    0.0000 H       1  UNL1        0.0625
     64 H           6.4349   -4.5734    0.0000 H       1  UNL1        0.0625
     65 H           3.6290   -2.9534    0.0000 H       1  UNL1        0.0654
     66 H           5.0320   -5.3834    0.0000 H       1  UNL1        0.0654
     67 H           3.2999   -5.3834    0.0000 H       1  UNL1        0.2921
@<TRIPOS>BOND
     1     1    10    1
     2     1    11    1
     3     2    15    1
     4     2    50    1
     5     3    18    1
     6     3    51    1
     7     4    23    1
     8     4    56    1
     9     5    24    1
    10     5    57    1
    11     6    25    2
    12     7    28    1
    13     7    62    1
    14     8    31    2
    15     9    39    1
    16     9    67    1
    17    10    16    1
    18    10    20    1
    19    10    21    1
    20    11    12   ar
    21    11    17   ar
    22    12    15   ar
    23    12    19    1
    24    13    14    1
    25    13    15   ar
    26    13    18   ar
    27    14    22    1
    28    14    40    1
    29    14    41    1
    30    16    19    2
    31    16    42    1
    32    17    18   ar
    33    17    25    1
    34    19    43    1
    35    20    44    1
    36    20    45    1
    37    20    46    1
    38    21    47    1
    39    21    48    1
    40    21    49    1
    41    22    23   ar
    42    22    24   ar
    43    23    26   ar
    44    24    27   ar
    45    25    30    1
    46    26    28   ar
    47    26    29    1
    48    27    28   ar
    49    27    31    1
    50    29    52    1
    51    29    53    1
    52    29    54    1
    53    30    32    2
    54    30    55    1
    55    31    33    1
    56    32    34    1
    57    32    58    1
    58    33    59    1
    59    33    60    1
    60    33    61    1
    61    34    35   ar
    62    34    36   ar
    63    35    37   ar
    64    35    63    1
    65    36    38   ar
    66    36    64    1
    67    37    39   ar
    68    37    65    1
    69    38    39   ar
    70    38    66    1
