@<TRIPOS>MOLECULE
IMPHY003914
 29 28 0 0 0
SMALL
GASTEIGER

@<TRIPOS>ATOM
      1 O           2.0000    1.3100    0.0000 O.2     1  UNL1       -0.2963
      2 C           7.1962   -0.6900    0.0000 C.3     1  UNL1       -0.0531
      3 C           6.3301   -0.1900    0.0000 C.3     1  UNL1       -0.0528
      4 C           8.0622   -0.1900    0.0000 C.3     1  UNL1       -0.0533
      5 C           5.4641   -0.6900    0.0000 C.3     1  UNL1       -0.0496
      6 C           8.9282   -0.6900    0.0000 C.3     1  UNL1       -0.0559
      7 C           4.5981   -0.1900    0.0000 C.3     1  UNL1       -0.0344
      8 C           9.7942   -0.1900    0.0000 C.3     1  UNL1       -0.0653
      9 C           3.7320   -0.6900    0.0000 C.2     1  UNL1       -0.0810
     10 C           2.8660   -0.1900    0.0000 C.2     1  UNL1       -0.0264
     11 C           2.8660    0.8100    0.0000 C.2     1  UNL1        0.1428
     12 H           6.7976   -1.1650    0.0000 H       1  UNL1        0.0265
     13 H           7.5947   -1.1650    0.0000 H       1  UNL1        0.0265
     14 H           6.7287    0.2849    0.0000 H       1  UNL1        0.0265
     15 H           5.9316    0.2849    0.0000 H       1  UNL1        0.0265
     16 H           8.4607    0.2849    0.0000 H       1  UNL1        0.0265
     17 H           7.6636    0.2849    0.0000 H       1  UNL1        0.0265
     18 H           5.0656   -1.1650    0.0000 H       1  UNL1        0.0268
     19 H           5.8626   -1.1650    0.0000 H       1  UNL1        0.0268
     20 H           8.5297   -1.1650    0.0000 H       1  UNL1        0.0263
     21 H           9.3267   -1.1650    0.0000 H       1  UNL1        0.0263
     22 H           4.9966    0.2849    0.0000 H       1  UNL1        0.0307
     23 H           4.1996    0.2849    0.0000 H       1  UNL1        0.0307
     24 H          10.1042   -0.7269    0.0000 H       1  UNL1        0.0230
     25 H          10.3312    0.1200    0.0000 H       1  UNL1        0.0230
     26 H           9.4842    0.3469    0.0000 H       1  UNL1        0.0230
     27 H           3.7320   -1.3100    0.0000 H       1  UNL1        0.0573
     28 H           2.3291   -0.5000    0.0000 H       1  UNL1        0.0646
     29 H           3.4030    1.1200    0.0000 H       1  UNL1        0.1075
@<TRIPOS>BOND
     1     1    11    2
     2     2     3    1
     3     2     4    1
     4     2    12    1
     5     2    13    1
     6     3     5    1
     7     3    14    1
     8     3    15    1
     9     4     6    1
    10     4    16    1
    11     4    17    1
    12     5     7    1
    13     5    18    1
    14     5    19    1
    15     6     8    1
    16     6    20    1
    17     6    21    1
    18     7     9    1
    19     7    22    1
    20     7    23    1
    21     8    24    1
    22     8    25    1
    23     8    26    1
    24     9    10    2
    25     9    27    1
    26    10    11    1
    27    10    28    1
    28    11    29    1
