@<TRIPOS>MOLECULE
IMPHY002141
 85 87 0 0 0
SMALL
GASTEIGER

@<TRIPOS>ATOM
      1 O           8.6270   -0.1527    0.0000 O.2     1  UNL1       -0.4908
      2 O           5.0162    0.5557    0.0000 O.2     1  UNL1       -0.2912
      3 O           6.8671    2.8820    0.0000 O.2     1  UNL1       -0.5055
      4 O           8.6155    2.9166    0.0000 O.2     1  UNL1       -0.2914
      5 O           2.5369    1.3820    0.0000 O.3     1  UNL1       -0.4806
      6 O           3.4030    2.8820    0.0000 O.2     1  UNL1       -0.2510
      7 C           6.8671   -0.1180    0.0000 C.3     1  UNL1        0.0951
      8 C           6.3671   -0.9840    0.0000 C.3     1  UNL1       -0.0262
      9 C           7.7331    0.3820    0.0000 C.2     1  UNL1        0.1260
     10 C           7.3671   -0.9840    0.0000 C.3     1  UNL1       -0.0148
     11 C           5.6010   -1.6268    0.0000 C.3     1  UNL1       -0.0157
     12 C           6.0010    0.3820    0.0000 C.2     1  UNL1        0.1770
     13 C           7.7331    1.3820    0.0000 C.2     1  UNL1        0.0979
     14 C           6.0010    1.3820    0.0000 C.2     1  UNL1        0.0460
     15 C           9.5331    1.4028    0.0000 C.3     1  UNL1        0.0561
     16 C           9.5331    0.3612    0.0000 C.3     1  UNL1        0.1066
     17 C           6.8671    1.8820    0.0000 C.2     1  UNL1        0.1377
     18 C           5.1350    1.8820    0.0000 C.3     1  UNL1        0.0261
     19 C           8.6270    1.9166    0.0000 C.2     1  UNL1        0.1762
     20 C           5.7746   -2.6116    0.0000 C.3     1  UNL1       -0.0280
     21 C           4.6613   -1.2848    0.0000 C.2     1  UNL1       -0.0763
     22 C           8.3671   -0.9840    0.0000 C.2     1  UNL1       -0.0839
     23 C          10.3972    1.9061    0.0000 C.3     1  UNL1       -0.0519
     24 C          10.3972   -0.1422    0.0000 C.3     1  UNL1       -0.0271
     25 C           4.2690    1.3820    0.0000 C.3     1  UNL1        0.0558
     26 C           5.1350    2.8820    0.0000 C.ar    1  UNL1       -0.0392
     27 C           5.0086   -3.2544    0.0000 C.2     1  UNL1       -0.0847
     28 C           8.8671   -1.8501    0.0000 C.2     1  UNL1       -0.0796
     29 C           3.8953   -1.9276    0.0000 C.3     1  UNL1       -0.0438
     30 C           4.4877   -0.3000    0.0000 C.2     1  UNL1       -0.0994
     31 C           6.0010    3.3820    0.0000 C.ar    1  UNL1       -0.0580
     32 C           4.2690    3.3820    0.0000 C.ar    1  UNL1       -0.0580
     33 C           3.4030    1.8820    0.0000 C.2     1  UNL1        0.3056
     34 C           5.1822   -4.2392    0.0000 C.2     1  UNL1       -0.0796
     35 C           9.8671   -1.8501    0.0000 C.3     1  UNL1       -0.0440
     36 C           8.3671   -2.7161    0.0000 C.3     1  UNL1       -0.0440
     37 C           6.0010    4.3820    0.0000 C.ar    1  UNL1       -0.0615
     38 C           4.2690    4.3820    0.0000 C.ar    1  UNL1       -0.0615
     39 C           4.4162   -4.8820    0.0000 C.3     1  UNL1       -0.0440
     40 C           6.1220   -4.5812    0.0000 C.3     1  UNL1       -0.0440
     41 C           5.1350    4.8820    0.0000 C.ar    1  UNL1       -0.0617
     42 H           6.5448   -1.5780    0.0000 H       1  UNL1        0.0285
     43 H           5.8921   -0.5855    0.0000 H       1  UNL1        0.0285
     44 H           6.7844   -1.1961    0.0000 H       1  UNL1        0.0321
     45 H           7.4747   -1.5946    0.0000 H       1  UNL1        0.0321
     46 H           5.1260   -2.0253    0.0000 H       1  UNL1        0.0349
     47 H           9.5295    2.0228    0.0000 H       1  UNL1        0.0414
     48 H           9.5295   -0.2588    0.0000 H       1  UNL1        0.0737
     49 H           5.1350    1.2620    0.0000 H       1  UNL1        0.0405
     50 H           6.0846   -3.1486    0.0000 H       1  UNL1        0.0313
     51 H           6.3572   -2.3996    0.0000 H       1  UNL1        0.0313
     52 H           8.6771   -0.4471    0.0000 H       1  UNL1        0.0572
     53 H          10.7093    1.3704    0.0000 H       1  UNL1        0.0238
     54 H          10.9329    2.2182    0.0000 H       1  UNL1        0.0238
     55 H          10.0851    2.4419    0.0000 H       1  UNL1        0.0238
     56 H          10.0851   -0.6779    0.0000 H       1  UNL1        0.0265
     57 H          10.9329   -0.4542    0.0000 H       1  UNL1        0.0265
     58 H          10.7093    0.3936    0.0000 H       1  UNL1        0.0265
     59 H           3.8705    0.9070    0.0000 H       1  UNL1        0.0387
     60 H           4.6675    0.9070    0.0000 H       1  UNL1        0.0387
     61 H           4.4260   -3.0423    0.0000 H       1  UNL1        0.0572
     62 H           3.4968   -1.4526    0.0000 H       1  UNL1        0.0274
     63 H           3.4203   -2.3261    0.0000 H       1  UNL1        0.0274
     64 H           4.2938   -2.4025    0.0000 H       1  UNL1        0.0274
     65 H           7.4040    3.1920    0.0000 H       1  UNL1        0.2922
     66 H           4.9626    0.0985    0.0000 H       1  UNL1        0.0534
     67 H           3.9051   -0.0879    0.0000 H       1  UNL1        0.0534
     68 H           6.5380    3.0720    0.0000 H       1  UNL1        0.0620
     69 H           3.7320    3.0720    0.0000 H       1  UNL1        0.0620
     70 H           7.8301   -2.4061    0.0000 H       1  UNL1        0.0274
     71 H           8.0571   -3.2530    0.0000 H       1  UNL1        0.0274
     72 H           8.9040   -3.0261    0.0000 H       1  UNL1        0.0274
     73 H           9.8671   -2.4701    0.0000 H       1  UNL1        0.0274
     74 H          10.4871   -1.8501    0.0000 H       1  UNL1        0.0274
     75 H           9.8671   -1.2301    0.0000 H       1  UNL1        0.0274
     76 H           6.5380    4.6920    0.0000 H       1  UNL1        0.0618
     77 H           3.7320    4.6920    0.0000 H       1  UNL1        0.0618
     78 H           5.9099   -5.1639    0.0000 H       1  UNL1        0.0274
     79 H           6.7046   -4.7933    0.0000 H       1  UNL1        0.0274
     80 H           6.3340   -3.9986    0.0000 H       1  UNL1        0.0274
     81 H           4.0177   -4.4070    0.0000 H       1  UNL1        0.0274
     82 H           3.9412   -5.2805    0.0000 H       1  UNL1        0.0274
     83 H           4.8147   -5.3569    0.0000 H       1  UNL1        0.0274
     84 H           5.1350    5.5020    0.0000 H       1  UNL1        0.0618
     85 H           2.0000    1.6920    0.0000 H       1  UNL1        0.2951
@<TRIPOS>BOND
     1     1     9    1
     2     1    16    1
     3     2    12    2
     4     3    17    1
     5     3    65    1
     6     4    19    2
     7     5    33    1
     8     5    85    1
     9     6    33    2
    10     7     8    1
    11     7     9    1
    12     7    10    1
    13     7    12    1
    14     8    11    1
    15     8    42    1
    16     8    43    1
    17     9    13    2
    18    10    22    1
    19    10    44    1
    20    10    45    1
    21    11    20    1
    22    11    21    1
    23    11    46    1
    24    12    14    1
    25    13    17    1
    26    13    19    1
    27    14    17    2
    28    14    18    1
    29    15    16    1
    30    15    19    1
    31    15    23    1
    32    15    47    1
    33    16    24    1
    34    16    48    1
    35    18    25    1
    36    18    26    1
    37    18    49    1
    38    20    27    1
    39    20    50    1
    40    20    51    1
    41    21    29    1
    42    21    30    2
    43    22    28    2
    44    22    52    1
    45    23    53    1
    46    23    54    1
    47    23    55    1
    48    24    56    1
    49    24    57    1
    50    24    58    1
    51    25    33    1
    52    25    59    1
    53    25    60    1
    54    26    31   ar
    55    26    32   ar
    56    27    34    2
    57    27    61    1
    58    28    35    1
    59    28    36    1
    60    29    62    1
    61    29    63    1
    62    29    64    1
    63    30    66    1
    64    30    67    1
    65    31    37   ar
    66    31    68    1
    67    32    38   ar
    68    32    69    1
    69    34    39    1
    70    34    40    1
    71    35    73    1
    72    35    74    1
    73    35    75    1
    74    36    70    1
    75    36    71    1
    76    36    72    1
    77    37    41   ar
    78    37    76    1
    79    38    41   ar
    80    38    77    1
    81    39    81    1
    82    39    82    1
    83    39    83    1
    84    40    78    1
    85    40    79    1
    86    40    80    1
    87    41    84    1
