@<TRIPOS>MOLECULE
IMPHY002749
 76 82 0 0 0
SMALL
GASTEIGER

@<TRIPOS>ATOM
      1 O           6.3740    0.0203    0.0000 O.3     1  UNL1       -0.4482
      2 O           4.6419    1.0203    0.0000 O.3     1  UNL1       -0.4449
      3 O           2.8718    0.0234    0.0000 O.3     1  UNL1       -0.4913
      4 O           9.1001    2.5867    0.0000 O.2     1  UNL1       -0.2700
      5 O          10.8342   -3.4581    0.0000 O.3     1  UNL1       -0.4523
      6 O          12.5852   -4.4246    0.0000 O.3     1  UNL1       -0.5033
      7 O          13.3643    0.0913    0.0000 O.2     1  UNL1       -0.2957
      8 N           6.4927   -3.1267    0.0000 N.3     1  UNL1       -0.2977
      9 N           8.2483    4.1816    0.0000 N.am    1  UNL1       -0.3003
     10 C           6.4760   -2.0418    0.0000 C.3     1  UNL1        0.0432
     11 C           5.5240   -1.5212    0.0000 C.ar    1  UNL1        0.0194
     12 C           5.5572   -3.6764    0.0000 C.3     1  UNL1        0.0032
     13 C           4.6260   -2.0490    0.0000 C.ar    1  UNL1       -0.0343
     14 C           4.6176   -3.1339    0.0000 C.3     1  UNL1       -0.0143
     15 C           7.3322   -1.5252    0.0000 C.3     1  UNL1       -0.0078
     16 C           5.5080   -0.4797    0.0000 C.ar    1  UNL1        0.1792
     17 C           3.7239   -1.5281    0.0000 C.ar    1  UNL1       -0.0125
     18 C           7.3644   -3.6167    0.0000 C.3     1  UNL1       -0.0122
     19 C           4.6419    0.0203    0.0000 C.ar    1  UNL1        0.2122
     20 C           8.2077   -2.0085    0.0000 C.ar    1  UNL1       -0.0453
     21 C           3.7319   -0.4866    0.0000 C.ar    1  UNL1        0.1661
     22 C           6.3740    1.0203    0.0000 C.ar    1  UNL1        0.1714
     23 C           5.5080    1.5203    0.0000 C.ar    1  UNL1        0.1711
     24 C           6.3899    3.0896    0.0000 C.ar    1  UNL1       -0.0301
     25 C           7.2920    2.5687    0.0000 C.ar    1  UNL1        0.0438
     26 C           6.3732    4.1744    0.0000 C.3     1  UNL1       -0.0110
     27 C           5.4919    2.5618    0.0000 C.ar    1  UNL1       -0.0117
     28 C           7.2840    1.5271    0.0000 C.ar    1  UNL1       -0.0033
     29 C           8.2270   -3.0083    0.0000 C.ar    1  UNL1       -0.0550
     30 C           9.0639   -1.4919    0.0000 C.ar    1  UNL1       -0.0550
     31 C           7.3086    4.7241    0.0000 C.3     1  UNL1        0.0187
     32 C           8.2399    3.0967    0.0000 C.2     1  UNL1        0.2468
     33 C           9.1024   -3.4915    0.0000 C.ar    1  UNL1       -0.0191
     34 C           9.9394   -1.9751    0.0000 C.ar    1  UNL1       -0.0191
     35 C           9.9587   -2.9749    0.0000 C.ar    1  UNL1        0.1286
     36 C           9.1162    4.6783    0.0000 C.3     1  UNL1        0.0035
     37 C           2.0000   -0.4665    0.0000 C.3     1  UNL1        0.0790
     38 C          11.6904   -2.9415    0.0000 C.ar    1  UNL1        0.1702
     39 C          12.5659   -3.4247    0.0000 C.ar    1  UNL1        0.1591
     40 C          11.6711   -1.9417    0.0000 C.ar    1  UNL1       -0.0055
     41 C          12.5274   -1.4251    0.0000 C.ar    1  UNL1        0.0179
     42 C          13.4221   -2.9081    0.0000 C.ar    1  UNL1       -0.0158
     43 C          13.4029   -1.9083    0.0000 C.ar    1  UNL1       -0.0479
     44 C          12.5081   -0.4253    0.0000 C.2     1  UNL1        0.1503
     45 H           7.0182   -2.3425    0.0000 H       1  UNL1        0.0516
     46 H           5.1600   -4.1524    0.0000 H       1  UNL1        0.0430
     47 H           5.9582   -4.1493    0.0000 H       1  UNL1        0.0430
     48 H           4.0076   -3.0231    0.0000 H       1  UNL1        0.0326
     49 H           4.4041   -3.7160    0.0000 H       1  UNL1        0.0326
     50 H           7.7215   -1.0427    0.0000 H       1  UNL1        0.0332
     51 H           6.9246   -1.0581    0.0000 H       1  UNL1        0.0332
     52 H           3.1858   -1.8361    0.0000 H       1  UNL1        0.0658
     53 H           7.0606   -4.1571    0.0000 H       1  UNL1        0.0391
     54 H           7.9049   -3.9204    0.0000 H       1  UNL1        0.0391
     55 H           7.6682   -3.0762    0.0000 H       1  UNL1        0.0391
     56 H           6.1552    4.7548    0.0000 H       1  UNL1        0.0329
     57 H           5.7641    4.0589    0.0000 H       1  UNL1        0.0329
     58 H           4.9514    2.8656    0.0000 H       1  UNL1        0.0658
     59 H           7.8173    1.2110    0.0000 H       1  UNL1        0.0663
     60 H           7.6961   -3.3286    0.0000 H       1  UNL1        0.0621
     61 H           9.0520   -0.8720    0.0000 H       1  UNL1        0.0621
     62 H           7.7059    5.2001    0.0000 H       1  UNL1        0.0468
     63 H           6.9077    5.1970    0.0000 H       1  UNL1        0.0468
     64 H           9.1144   -4.1114    0.0000 H       1  UNL1        0.0654
     65 H          10.4703   -1.6548    0.0000 H       1  UNL1        0.0654
     66 H           9.4241    4.1402    0.0000 H       1  UNL1        0.0429
     67 H           9.6543    4.9862    0.0000 H       1  UNL1        0.0429
     68 H           8.8083    5.2164    0.0000 H       1  UNL1        0.0429
     69 H           1.6962    0.0740    0.0000 H       1  UNL1        0.0660
     70 H           1.4595   -0.7703    0.0000 H       1  UNL1        0.0660
     71 H           2.3038   -1.0070    0.0000 H       1  UNL1        0.0660
     72 H          11.1283   -1.6421    0.0000 H       1  UNL1        0.0662
     73 H          13.9649   -3.2077    0.0000 H       1  UNL1        0.0655
     74 H          13.9337   -1.5880    0.0000 H       1  UNL1        0.0626
     75 H          13.1280   -4.7241    0.0000 H       1  UNL1        0.2923
     76 H          11.9653   -0.1257    0.0000 H       1  UNL1        0.1081
@<TRIPOS>BOND
     1     1    16    1
     2     1    22    1
     3     2    19    1
     4     2    23    1
     5     3    21    1
     6     3    37    1
     7     4    32    2
     8     5    35    1
     9     5    38    1
    10     6    39    1
    11     6    75    1
    12     7    44    2
    13     8    10    1
    14     8    12    1
    15     8    18    1
    16     9    31    1
    17     9    32   am
    18     9    36    1
    19    10    11    1
    20    10    15    1
    21    10    45    1
    22    11    13   ar
    23    11    16   ar
    24    12    14    1
    25    12    46    1
    26    12    47    1
    27    13    14    1
    28    13    17   ar
    29    14    48    1
    30    14    49    1
    31    15    20    1
    32    15    50    1
    33    15    51    1
    34    16    19   ar
    35    17    21   ar
    36    17    52    1
    37    18    53    1
    38    18    54    1
    39    18    55    1
    40    19    21   ar
    41    20    29   ar
    42    20    30   ar
    43    22    23   ar
    44    22    28   ar
    45    23    27   ar
    46    24    25   ar
    47    24    26    1
    48    24    27   ar
    49    25    28   ar
    50    25    32    1
    51    26    31    1
    52    26    56    1
    53    26    57    1
    54    27    58    1
    55    28    59    1
    56    29    33   ar
    57    29    60    1
    58    30    34   ar
    59    30    61    1
    60    31    62    1
    61    31    63    1
    62    33    35   ar
    63    33    64    1
    64    34    35   ar
    65    34    65    1
    66    36    66    1
    67    36    67    1
    68    36    68    1
    69    37    69    1
    70    37    70    1
    71    37    71    1
    72    38    39   ar
    73    38    40   ar
    74    39    42   ar
    75    40    41   ar
    76    40    72    1
    77    41    43   ar
    78    41    44    1
    79    42    43   ar
    80    42    73    1
    81    43    74    1
    82    44    76    1
