@<TRIPOS>MOLECULE
IMPHY010502
 96 101 0 0 0
SMALL
GASTEIGER

@<TRIPOS>ATOM
      1 O           9.9650    0.3596    0.0000 O.3     1  UNL1       -0.3585
      2 O           7.8363    2.3514    0.0000 O.3     1  UNL1       -0.4581
      3 O           9.5407   -1.7356    0.0000 O.3     1  UNL1       -0.3888
      4 O          11.2842   -0.7557    0.0000 O.3     1  UNL1       -0.3858
      5 O          10.5045    2.7615    0.0000 O.3     1  UNL1       -0.4464
      6 O          11.9455    1.6028    0.0000 O.3     1  UNL1       -0.4659
      7 O           8.6744   -2.3282    0.0000 O.2     1  UNL1       -0.2882
      8 O          11.9255   -0.1291    0.0000 O.2     1  UNL1       -0.2475
      9 O           8.7754    3.8424    0.0000 O.2     1  UNL1       -0.2466
     10 O           6.8671   -3.3810    0.0000 O.2     1  UNL1       -0.4576
     11 O           9.6975    4.2941    0.0000 O.2     1  UNL1       -0.2456
     12 O           5.1350   -3.3810    0.0000 O.3     1  UNL1       -0.3313
     13 O           6.8671   -5.3810    0.0000 O.3     1  UNL1       -0.3829
     14 O           5.1350   -6.3810    0.0000 O.3     1  UNL1       -0.3864
     15 O           3.4030   -5.3810    0.0000 O.3     1  UNL1       -0.3865
     16 O           2.5369   -3.8810    0.0000 O.3     1  UNL1       -0.3924
     17 C           8.7037    0.7742    0.0000 C.3     1  UNL1        0.0472
     18 C           8.6921   -0.2257    0.0000 C.3     1  UNL1        0.0120
     19 C           9.5754    1.2642    0.0000 C.3     1  UNL1        0.0603
     20 C           7.7920   -0.7500    0.0000 C.3     1  UNL1        0.0432
     21 C           7.8160    1.3192    0.0000 C.3     1  UNL1        0.1120
     22 C          10.4356    0.7542    0.0000 C.3     1  UNL1        0.2007
     23 C           6.8920   -0.2257    0.0000 C.3     1  UNL1       -0.0186
     24 C           9.5523   -0.7357    0.0000 C.3     1  UNL1        0.0887
     25 C           9.1651    0.3689    0.0000 C.3     1  UNL1        0.0591
     26 C          10.4241   -0.2457    0.0000 C.3     1  UNL1        0.1210
     27 C           6.9040    0.8159    0.0000 C.3     1  UNL1       -0.0108
     28 C           9.6196    2.2957    0.0000 C.3     1  UNL1        0.2059
     29 C           5.9421   -0.7500    0.0000 C.3     1  UNL1       -0.0181
     30 C           8.4319   -1.5185    0.0000 C.3     1  UNL1       -0.0517
     31 C           7.8046   -1.8349    0.0000 C.2     1  UNL1        0.2036
     32 C          11.4355    0.7426    0.0000 C.2     1  UNL1        0.3423
     33 C           8.7442    2.8429    0.0000 C.2     1  UNL1        0.3491
     34 C           5.9295   -1.8349    0.0000 C.2     1  UNL1       -0.0355
     35 C           6.8671   -2.3810    0.0000 C.2     1  UNL1        0.1631
     36 C           5.0839   -0.2367    0.0000 C.3     1  UNL1       -0.0585
     37 C          10.5434    3.7608    0.0000 C.2     1  UNL1        0.3327
     38 C          12.9455    1.5913    0.0000 C.3     1  UNL1        0.0818
     39 C           6.0010   -3.8810    0.0000 C.3     1  UNL1        0.2309
     40 C          11.4283    4.2267    0.0000 C.2     1  UNL1        0.0217
     41 C           6.0010   -4.8810    0.0000 C.3     1  UNL1        0.1454
     42 C           5.1350   -5.3810    0.0000 C.3     1  UNL1        0.1152
     43 C           4.2690   -3.8810    0.0000 C.3     1  UNL1        0.1140
     44 C          11.4672    5.2259    0.0000 C.2     1  UNL1       -0.0633
     45 C           4.2690   -4.8810    0.0000 C.3     1  UNL1        0.1120
     46 C          12.3521    5.6918    0.0000 C.3     1  UNL1       -0.0253
     47 C           3.4030   -3.3810    0.0000 C.3     1  UNL1        0.0731
     48 C          10.6213    5.7592    0.0000 C.3     1  UNL1       -0.0430
     49 C          12.3910    6.6910    0.0000 C.3     1  UNL1       -0.0590
     50 C          13.1980    5.1584    0.0000 C.3     1  UNL1       -0.0590
     51 H           8.6823   -1.0756    0.0000 H       1  UNL1        0.0344
     52 H           9.1590    2.0052    0.0000 H       1  UNL1        0.0384
     53 H           7.0883    1.7585    0.0000 H       1  UNL1        0.0740
     54 H           6.1625    0.2106    0.0000 H       1  UNL1        0.0317
     55 H          10.0856   -1.0519    0.0000 H       1  UNL1        0.0623
     56 H           8.6407    0.0381    0.0000 H       1  UNL1        0.0567
     57 H           9.3338   -0.2277    0.0000 H       1  UNL1        0.0567
     58 H          10.9645    0.0580    0.0000 H       1  UNL1        0.0654
     59 H           6.7017    1.4019    0.0000 H       1  UNL1        0.0304
     60 H           6.2920    0.7168    0.0000 H       1  UNL1        0.0304
     61 H           9.6426    2.9152    0.0000 H       1  UNL1        0.0857
     62 H           5.4010   -1.0527    0.0000 H       1  UNL1        0.0344
     63 H           7.9554   -1.9152    0.0000 H       1  UNL1        0.0239
     64 H           8.8286   -1.9950    0.0000 H       1  UNL1        0.0239
     65 H           8.9084   -1.1218    0.0000 H       1  UNL1        0.0239
     66 H          10.0741   -2.0518    0.0000 H       1  UNL1        0.2099
     67 H           5.3902   -2.1408    0.0000 H       1  UNL1        0.0612
     68 H          11.2771   -1.3757    0.0000 H       1  UNL1        0.2100
     69 H           5.4021    0.2954    0.0000 H       1  UNL1        0.0235
     70 H           4.5518    0.0815    0.0000 H       1  UNL1        0.0235
     71 H           4.7656   -0.7688    0.0000 H       1  UNL1        0.0235
     72 H          12.9383    0.9713    0.0000 H       1  UNL1        0.0661
     73 H          13.5654    1.5841    0.0000 H       1  UNL1        0.0661
     74 H          12.9526    2.2112    0.0000 H       1  UNL1        0.0661
     75 H           6.0010   -3.2610    0.0000 H       1  UNL1        0.1084
     76 H          11.9527    3.8960    0.0000 H       1  UNL1        0.0688
     77 H           6.0010   -5.5010    0.0000 H       1  UNL1        0.0683
     78 H           4.5981   -5.6910    0.0000 H       1  UNL1        0.0648
     79 H           4.2690   -3.2610    0.0000 H       1  UNL1        0.0647
     80 H           3.7320   -4.5710    0.0000 H       1  UNL1        0.0647
     81 H           6.8671   -6.0010    0.0000 H       1  UNL1        0.2102
     82 H          11.8276    6.0225    0.0000 H       1  UNL1        0.0340
     83 H           3.8015   -2.9061    0.0000 H       1  UNL1        0.0584
     84 H           3.0044   -2.9061    0.0000 H       1  UNL1        0.0584
     85 H          10.9520    6.2837    0.0000 H       1  UNL1        0.0275
     86 H          10.0969    6.0899    0.0000 H       1  UNL1        0.0275
     87 H          10.2906    5.2348    0.0000 H       1  UNL1        0.0275
     88 H           4.5981   -6.6910    0.0000 H       1  UNL1        0.2100
     89 H           3.4030   -6.0010    0.0000 H       1  UNL1        0.2100
     90 H          13.0106    6.6669    0.0000 H       1  UNL1        0.0235
     91 H          12.8673    4.6340    0.0000 H       1  UNL1        0.0235
     92 H          13.7224    4.8278    0.0000 H       1  UNL1        0.0235
     93 H          13.5286    5.6829    0.0000 H       1  UNL1        0.0235
     94 H          12.4152    7.3106    0.0000 H       1  UNL1        0.0235
     95 H          11.7715    6.7152    0.0000 H       1  UNL1        0.0235
     96 H           2.0000   -3.5710    0.0000 H       1  UNL1        0.2095
@<TRIPOS>BOND
     1     1    22    1
     2     1    25    1
     3     2    21    1
     4     2    33    1
     5    24     3    1
     6     3    66    1
     7    26     4    1
     8     4    68    1
     9    28     5    1
    10     5    37    1
    11     6    32    1
    12     6    38    1
    13     7    31    2
    14     8    32    2
    15     9    33    2
    16    10    35    1
    17    39    10    1
    18    11    37    2
    19    12    39    1
    20    12    43    1
    21    41    13    1
    22    13    81    1
    23    42    14    1
    24    14    88    1
    25    45    15    1
    26    15    89    1
    27    16    47    1
    28    16    96    1
    29    17    18    1
    30    17    19    1
    31    17    21    1
    32    17    25    1
    33    18    20    1
    34    18    24    1
    35    18    51    1
    36    19    22    1
    37    19    28    1
    38    19    52    1
    39    20    23    1
    40    20    30    1
    41    20    31    1
    42    21    27    1
    43    21    53    1
    44    22    26    1
    45    22    32    1
    46    23    27    1
    47    23    29    1
    48    23    54    1
    49    24    26    1
    50    24    55    1
    51    25    56    1
    52    25    57    1
    53    26    58    1
    54    27    59    1
    55    27    60    1
    56    28    33    1
    57    28    61    1
    58    29    34    1
    59    29    36    1
    60    29    62    1
    61    30    63    1
    62    30    64    1
    63    30    65    1
    64    31    35    1
    65    34    35    2
    66    34    67    1
    67    36    69    1
    68    36    70    1
    69    36    71    1
    70    37    40    1
    71    38    72    1
    72    38    73    1
    73    38    74    1
    74    39    41    1
    75    39    75    1
    76    40    44    2
    77    40    76    1
    78    41    42    1
    79    41    77    1
    80    42    45    1
    81    42    78    1
    82    43    45    1
    83    43    47    1
    84    43    79    1
    85    44    46    1
    86    44    48    1
    87    45    80    1
    88    46    49    1
    89    46    50    1
    90    46    82    1
    91    47    83    1
    92    47    84    1
    93    48    85    1
    94    48    86    1
    95    48    87    1
    96    49    90    1
    97    49    94    1
    98    49    95    1
    99    50    91    1
   100    50    92    1
   101    50    93    1
