@<TRIPOS>MOLECULE
IMPHY017097
 23 22 0 0 0
SMALL
GASTEIGER

@<TRIPOS>ATOM
      1 O           6.3301    1.2500    0.0000 O.2     1  UNL1       -0.2977
      2 C           3.7320   -0.2500    0.0000 C.3     1  UNL1       -0.0256
      3 C           4.5981    0.2500    0.0000 C.3     1  UNL1       -0.0404
      4 C           5.4641   -0.2500    0.0000 C.3     1  UNL1        0.0061
      5 C           3.7320   -1.2500    0.0000 C.3     1  UNL1       -0.0590
      6 C           2.8660    0.2500    0.0000 C.2     1  UNL1       -0.0883
      7 C           6.3301    0.2500    0.0000 C.2     1  UNL1        0.1303
      8 C           7.1962   -0.2500    0.0000 C.3     1  UNL1       -0.0061
      9 C           2.0000   -0.2500    0.0000 C.2     1  UNL1       -0.1024
     10 H           4.2690   -0.5600    0.0000 H       1  UNL1        0.0340
     11 H           4.9966    0.7249    0.0000 H       1  UNL1        0.0275
     12 H           4.1996    0.7249    0.0000 H       1  UNL1        0.0275
     13 H           5.0656   -0.7249    0.0000 H       1  UNL1        0.0342
     14 H           5.8626   -0.7249    0.0000 H       1  UNL1        0.0342
     15 H           3.1120   -1.2500    0.0000 H       1  UNL1        0.0235
     16 H           3.7320   -1.8700    0.0000 H       1  UNL1        0.0235
     17 H           4.3520   -1.2500    0.0000 H       1  UNL1        0.0235
     18 H           2.8660    0.8700    0.0000 H       1  UNL1        0.0569
     19 H           6.8862   -0.7869    0.0000 H       1  UNL1        0.0306
     20 H           7.7331   -0.5600    0.0000 H       1  UNL1        0.0306
     21 H           7.5062    0.2869    0.0000 H       1  UNL1        0.0306
     22 H           1.4631    0.0600    0.0000 H       1  UNL1        0.0532
     23 H           2.0000   -0.8700    0.0000 H       1  UNL1        0.0532
@<TRIPOS>BOND
     1     1     7    2
     2     2     3    1
     3     2     5    1
     4     2     6    1
     5     2    10    1
     6     3     4    1
     7     3    11    1
     8     3    12    1
     9     4     7    1
    10     4    13    1
    11     4    14    1
    12     5    15    1
    13     5    16    1
    14     5    17    1
    15     6     9    2
    16     6    18    1
    17     7     8    1
    18     8    19    1
    19     8    20    1
    20     8    21    1
    21     9    22    1
    22     9    23    1
