@<TRIPOS>MOLECULE
IMPHY016369
 22 21 0 0 0
SMALL
GASTEIGER

@<TRIPOS>ATOM
      1 S           4.5981   -0.5950    0.0000 S.3     1  UNL1       -0.1748
      2 O           7.1962    0.9050    0.0000 O.3     1  UNL1       -0.3950
      3 C           4.5981    0.4050    0.0000 C.3     1  UNL1        0.0043
      4 C           3.7320    0.9050    0.0000 C.3     1  UNL1       -0.0416
      5 C           5.4641    0.9050    0.0000 C.3     1  UNL1       -0.0181
      6 C           2.8660    0.4050    0.0000 C.3     1  UNL1       -0.0549
      7 C           6.3301    0.4050    0.0000 C.3     1  UNL1        0.0452
      8 C           2.0000    0.9050    0.0000 C.3     1  UNL1       -0.0652
      9 H           5.1350    0.0950    0.0000 H       1  UNL1        0.0410
     10 H           4.1306    1.3800    0.0000 H       1  UNL1        0.0276
     11 H           3.3335    1.3800    0.0000 H       1  UNL1        0.0276
     12 H           5.8626    1.3800    0.0000 H       1  UNL1        0.0298
     13 H           5.0656    1.3800    0.0000 H       1  UNL1        0.0298
     14 H           2.4675   -0.0699    0.0000 H       1  UNL1        0.0263
     15 H           3.2646   -0.0699    0.0000 H       1  UNL1        0.0263
     16 H           5.9316   -0.0699    0.0000 H       1  UNL1        0.0557
     17 H           6.7287   -0.0699    0.0000 H       1  UNL1        0.0557
     18 H           2.3100    1.4419    0.0000 H       1  UNL1        0.0230
     19 H           1.4631    1.2150    0.0000 H       1  UNL1        0.0230
     20 H           1.6900    0.3681    0.0000 H       1  UNL1        0.0230
     21 H           4.0611   -0.9050    0.0000 H       1  UNL1        0.1019
     22 H           7.7331    0.5950    0.0000 H       1  UNL1        0.2094
@<TRIPOS>BOND
     1     1     3    1
     2     1    21    1
     3     2     7    1
     4     2    22    1
     5     3     4    1
     6     3     5    1
     7     3     9    1
     8     4     6    1
     9     4    10    1
    10     4    11    1
    11     5     7    1
    12     5    12    1
    13     5    13    1
    14     6     8    1
    15     6    14    1
    16     6    15    1
    17     7    16    1
    18     7    17    1
    19     8    18    1
    20     8    19    1
    21     8    20    1
