@<TRIPOS>MOLECULE
IMPHY011329
 41 45 0 0 0
SMALL
GASTEIGER

@<TRIPOS>ATOM
      1 O          14.7331    0.8346    0.0000 O.3     1  UNL1       -0.3157
      2 O           4.2690   -2.1379    0.0000 O.3     1  UNL1       -0.3157
      3 O          13.8613   -0.6621    0.0000 O.3     1  UNL1       -0.4504
      4 O           6.0010   -2.1379    0.0000 O.3     1  UNL1       -0.4505
      5 O          17.3254   -0.6754    0.0000 O.3     1  UNL1       -0.2173
      6 O          17.3331    1.3246    0.0000 O.3     1  UNL1       -0.2176
      7 O           4.2690    0.8621    0.0000 O.3     1  UNL1       -0.2173
      8 O           2.5369   -0.1379    0.0000 O.3     1  UNL1       -0.2176
      9 O          15.5895   -1.6687    0.0000 O.3     1  UNL1       -0.2135
     10 O           6.0010   -0.1379    0.0000 O.3     1  UNL1       -0.2135
     11 O          16.4728    2.8279    0.0000 O.3     1  UNL1       -0.2176
     12 O           2.5369   -3.1379    0.0000 O.3     1  UNL1       -0.2176
     13 O          10.3312   -0.6379    0.0000 O.3     1  UNL1       -0.4741
     14 O          10.3312    2.3621    0.0000 O.2     1  UNL1       -0.2911
     15 C          16.4613   -0.1721    0.0000 C.3     1  UNL1        0.2211
     16 C          16.4651    0.8279    0.0000 C.3     1  UNL1        0.2145
     17 C           4.2690   -0.1379    0.0000 C.3     1  UNL1        0.2211
     18 C           3.4030   -0.6379    0.0000 C.3     1  UNL1        0.2145
     19 C          15.5933   -0.6687    0.0000 C.3     1  UNL1        0.2542
     20 C          15.6010    1.3313    0.0000 C.3     1  UNL1        0.1846
     21 C           5.1350   -0.6379    0.0000 C.3     1  UNL1        0.2542
     22 C           3.4030   -1.6379    0.0000 C.3     1  UNL1        0.1846
     23 C          14.7292   -0.1654    0.0000 C.3     1  UNL1        0.3218
     24 C           5.1350   -1.6379    0.0000 C.3     1  UNL1        0.3218
     25 C          15.6049    2.3312    0.0000 C.3     1  UNL1        0.2142
     26 C           2.5369   -2.1379    0.0000 C.3     1  UNL1        0.2142
     27 C           9.4651   -0.1379    0.0000 C.3     1  UNL1        0.1958
     28 C          12.9972   -0.1587    0.0000 C.ar    1  UNL1        0.1444
     29 C           6.8671   -1.6379    0.0000 C.ar    1  UNL1        0.1414
     30 C           9.4651    0.8621    0.0000 C.3     1  UNL1        0.1173
     31 C           8.5991   -0.6379    0.0000 C.ar    1  UNL1        0.0178
     32 C          11.1972   -0.1379    0.0000 C.ar    1  UNL1        0.1446
     33 C          11.1972    0.8621    0.0000 C.ar    1  UNL1        0.0690
     34 C          12.0911   -0.6726    0.0000 C.ar    1  UNL1        0.0739
     35 C          10.3312    1.3621    0.0000 C.2     1  UNL1        0.1800
     36 C          12.9972    0.8829    0.0000 C.ar    1  UNL1        0.0373
     37 C           7.7331   -2.1379    0.0000 C.ar    1  UNL1        0.0368
     38 C           6.8671   -0.6379    0.0000 C.ar    1  UNL1        0.0368
     39 C           8.5991   -1.6379    0.0000 C.ar    1  UNL1        0.0023
     40 C           7.7331   -0.1379    0.0000 C.ar    1  UNL1        0.0023
     41 C          12.0911    1.3968    0.0000 C.ar    1  UNL1        0.0090
@<TRIPOS>BOND
     1     1    20    1
     2     1    23    1
     3     2    22    1
     4     2    24    1
     5     3    28    1
     6     4    29    1
     7    11    25    1
     8    12    26    1
     9    13    27    1
    10    13    32    1
    11    14    35    2
    12    15     5    1
    13    15    16    1
    14    15    19    1
    15    16     6    1
    16    16    20    1
    17    17     7    1
    18    17    18    1
    19    17    21    1
    20    18     8    1
    21    18    22    1
    22    19     9    1
    23    19    23    1
    24    20    25    1
    25    21    10    1
    26    21    24    1
    27    22    26    1
    28    23     3    1
    29    24     4    1
    30    27    30    1
    31    27    31    1
    32    28    34   ar
    33    28    36   ar
    34    29    37   ar
    35    29    38   ar
    36    30    35    1
    37    31    39   ar
    38    31    40   ar
    39    32    33   ar
    40    32    34   ar
    41    33    35    1
    42    33    41   ar
    43    36    41   ar
    44    37    39   ar
    45    38    40   ar
