@<TRIPOS>MOLECULE
IMPHY012751
 93 96 0 0 0
SMALL
GASTEIGER

@<TRIPOS>ATOM
      1 O           6.6626   -2.3010    0.0000 O.3     1  UNL1       -0.4570
      2 O           2.8660   -1.3635    0.0000 O.3     1  UNL1       -0.4571
      3 O           3.9524    2.3932    0.0000 O.3     1  UNL1       -0.3799
      4 O           7.2196    3.1500    0.0000 O.3     1  UNL1       -0.3907
      5 O           8.9516    0.1500    0.0000 O.3     1  UNL1       -0.4550
      6 O           5.4875    3.1500    0.0000 O.2     1  UNL1       -0.2936
      7 O           8.3099   -1.7658    0.0000 O.2     1  UNL1       -0.2511
      8 O           3.7320   -2.8635    0.0000 O.2     1  UNL1       -0.2511
      9 O           9.8177    1.6500    0.0000 O.2     1  UNL1       -0.2478
     10 O          10.6837   -0.8500    0.0000 O.3     1  UNL1       -0.3788
     11 N          11.5497    1.6500    0.0000 N.3     1  UNL1       -0.2988
     12 C           5.4875    0.1500    0.0000 C.3     1  UNL1       -0.0041
     13 C           5.4875   -0.8500    0.0000 C.3     1  UNL1        0.0124
     14 C           6.3536    1.6500    0.0000 C.3     1  UNL1        0.0588
     15 C           4.6215    0.6500    0.0000 C.2     1  UNL1       -0.0258
     16 C           4.6137   -1.3680    0.0000 C.3     1  UNL1       -0.0044
     17 C           6.3536   -1.3500    0.0000 C.3     1  UNL1        0.1253
     18 C           3.7320   -0.8635    0.0000 C.3     1  UNL1        0.1246
     19 C           6.3536    0.6500    0.0000 C.3     1  UNL1       -0.0136
     20 C           4.6215    1.6500    0.0000 C.3     1  UNL1        0.1355
     21 C           7.2196    2.1500    0.0000 C.3     1  UNL1        0.0713
     22 C           3.7360    0.1523    0.0000 C.2     1  UNL1       -0.0301
     23 C           7.2196    0.1500    0.0000 C.2     1  UNL1       -0.0290
     24 C           5.4875    2.1500    0.0000 C.2     1  UNL1        0.1743
     25 C           8.0856    0.6500    0.0000 C.3     1  UNL1        0.1267
     26 C           8.0856    1.6500    0.0000 C.3     1  UNL1        0.0153
     27 C           5.4875    1.1500    0.0000 C.3     1  UNL1       -0.0556
     28 C           6.3536   -0.3500    0.0000 C.3     1  UNL1       -0.0556
     29 C           7.2196   -0.8500    0.0000 C.2     1  UNL1       -0.0410
     30 C           6.3536    2.6500    0.0000 C.3     1  UNL1       -0.0500
     31 C           2.8738    0.6590    0.0000 C.3     1  UNL1       -0.0400
     32 C           7.6407   -2.5090    0.0000 C.2     1  UNL1        0.3045
     33 C           2.8660   -2.3635    0.0000 C.2     1  UNL1        0.3045
     34 C           9.8177    0.6500    0.0000 C.2     1  UNL1        0.3385
     35 C          10.6837    0.1500    0.0000 C.3     1  UNL1        0.1711
     36 C           7.9498   -3.4600    0.0000 C.3     1  UNL1        0.0333
     37 C           2.0000   -2.8635    0.0000 C.3     1  UNL1        0.0333
     38 C          11.5497    0.6500    0.0000 C.3     1  UNL1        0.0717
     39 C          12.4157    0.1500    0.0000 C.ar    1  UNL1       -0.0273
     40 C          12.4157    2.1500    0.0000 C.3     1  UNL1       -0.0124
     41 C          10.6837    2.1500    0.0000 C.3     1  UNL1       -0.0124
     42 C          12.4157   -0.8500    0.0000 C.ar    1  UNL1       -0.0570
     43 C          13.2818    0.6500    0.0000 C.ar    1  UNL1       -0.0570
     44 C          13.2818   -1.3500    0.0000 C.ar    1  UNL1       -0.0615
     45 C          14.1478    0.1500    0.0000 C.ar    1  UNL1       -0.0615
     46 C          14.1478   -0.8500    0.0000 C.ar    1  UNL1       -0.0617
     47 H           5.4875   -1.7000    0.0000 H       1  UNL1        0.0349
     48 H           4.2183   -1.8455    0.0000 H       1  UNL1        0.0308
     49 H           5.0165   -1.8394    0.0000 H       1  UNL1        0.0308
     50 H           6.1620   -1.9396    0.0000 H       1  UNL1        0.0782
     51 H           3.1957   -0.5525    0.0000 H       1  UNL1        0.0782
     52 H           5.7430    0.7577    0.0000 H       1  UNL1        0.0321
     53 H           6.1415    0.0674    0.0000 H       1  UNL1        0.0321
     54 H           4.0151    1.7789    0.0000 H       1  UNL1        0.0721
     55 H           7.7565    2.4600    0.0000 H       1  UNL1        0.0604
     56 H           8.0856    0.0300    0.0000 H       1  UNL1        0.0783
     57 H           8.6962    1.5424    0.0000 H       1  UNL1        0.0329
     58 H           8.2977    2.2326    0.0000 H       1  UNL1        0.0329
     59 H           6.1075    1.1500    0.0000 H       1  UNL1        0.0238
     60 H           5.4875    1.7700    0.0000 H       1  UNL1        0.0238
     61 H           4.8675    1.1500    0.0000 H       1  UNL1        0.0238
     62 H           6.0436   -0.8869    0.0000 H       1  UNL1        0.0238
     63 H           6.8905   -0.6600    0.0000 H       1  UNL1        0.0238
     64 H           6.6636    0.1869    0.0000 H       1  UNL1        0.0238
     65 H           7.7565   -1.1600    0.0000 H       1  UNL1        0.0609
     66 H           6.9736    2.6500    0.0000 H       1  UNL1        0.0240
     67 H           6.3536    3.2700    0.0000 H       1  UNL1        0.0240
     68 H           5.7336    2.6500    0.0000 H       1  UNL1        0.0240
     69 H           3.1880    1.1935    0.0000 H       1  UNL1        0.0276
     70 H           2.3393    0.9731    0.0000 H       1  UNL1        0.0276
     71 H           2.5597    0.1244    0.0000 H       1  UNL1        0.0276
     72 H           4.1440    2.9828    0.0000 H       1  UNL1        0.2108
     73 H           7.7565    3.4600    0.0000 H       1  UNL1        0.2098
     74 H          11.2206   -0.1600    0.0000 H       1  UNL1        0.0730
     75 H           7.3601   -3.6516    0.0000 H       1  UNL1        0.0342
     76 H           8.1413   -4.0497    0.0000 H       1  UNL1        0.0342
     77 H           8.5394   -3.2684    0.0000 H       1  UNL1        0.0342
     78 H           1.6900   -2.3266    0.0000 H       1  UNL1        0.0342
     79 H           1.4631   -3.1735    0.0000 H       1  UNL1        0.0342
     80 H           2.3100   -3.4005    0.0000 H       1  UNL1        0.0342
     81 H          11.0128    0.9600    0.0000 H       1  UNL1        0.0543
     82 H          11.2206   -1.1600    0.0000 H       1  UNL1        0.2106
     83 H          12.7257    1.6131    0.0000 H       1  UNL1        0.0391
     84 H          12.9527    2.4600    0.0000 H       1  UNL1        0.0391
     85 H          12.1057    2.6870    0.0000 H       1  UNL1        0.0391
     86 H          10.9937    2.6870    0.0000 H       1  UNL1        0.0391
     87 H          10.1468    2.4600    0.0000 H       1  UNL1        0.0391
     88 H          10.3737    1.6131    0.0000 H       1  UNL1        0.0391
     89 H          11.8788   -1.1600    0.0000 H       1  UNL1        0.0621
     90 H          13.2818    1.2700    0.0000 H       1  UNL1        0.0621
     91 H          13.2818   -1.9700    0.0000 H       1  UNL1        0.0618
     92 H          14.6847    0.4600    0.0000 H       1  UNL1        0.0618
     93 H          14.6847   -1.1600    0.0000 H       1  UNL1        0.0618
@<TRIPOS>BOND
     1    17     1    1
     2     1    32    1
     3    18     2    1
     4     2    33    1
     5    20     3    1
     6     3    72    1
     7    21     4    1
     8     4    73    1
     9    25     5    1
    10     5    34    1
    11     6    24    2
    12     7    32    2
    13     8    33    2
    14     9    34    2
    15    35    10    1
    16    10    82    1
    17    38    11    1
    18    11    40    1
    19    11    41    1
    20    12    13    1
    21    12    15    1
    22    12    27    1
    23    12    28    1
    24    13    16    1
    25    13    17    1
    26    13    47    1
    27    14    19    1
    28    14    21    1
    29    14    24    1
    30    14    30    1
    31    15    20    1
    32    15    22    2
    33    16    18    1
    34    16    48    1
    35    16    49    1
    36    17    29    1
    37    17    50    1
    38    18    22    1
    39    18    51    1
    40    19    23    1
    41    19    52    1
    42    19    53    1
    43    20    24    1
    44    20    54    1
    45    21    26    1
    46    21    55    1
    47    22    31    1
    48    23    25    1
    49    23    29    2
    50    25    26    1
    51    25    56    1
    52    26    57    1
    53    26    58    1
    54    27    59    1
    55    27    60    1
    56    27    61    1
    57    28    62    1
    58    28    63    1
    59    28    64    1
    60    29    65    1
    61    30    66    1
    62    30    67    1
    63    30    68    1
    64    31    69    1
    65    31    70    1
    66    31    71    1
    67    32    36    1
    68    33    37    1
    69    34    35    1
    70    35    38    1
    71    35    74    1
    72    36    75    1
    73    36    76    1
    74    36    77    1
    75    37    78    1
    76    37    79    1
    77    37    80    1
    78    38    39    1
    79    38    81    1
    80    39    42   ar
    81    39    43   ar
    82    40    83    1
    83    40    84    1
    84    40    85    1
    85    41    86    1
    86    41    87    1
    87    41    88    1
    88    42    44   ar
    89    42    89    1
    90    43    45   ar
    91    43    90    1
    92    44    46   ar
    93    44    91    1
    94    45    46   ar
    95    45    92    1
    96    46    93    1
