@<TRIPOS>MOLECULE
IMPHY007025
 31 30 0 0 0
SMALL
GASTEIGER

@<TRIPOS>ATOM
      1 P           6.0010   -0.4050    0.0000 P.3     1  UNL1        0.2127
      2 O           6.8671    0.0950    0.0000 O.3     1  UNL1       -0.3247
      3 O           8.5991    1.0950    0.0000 O.3     1  UNL1       -0.3861
      4 O          10.3312    0.0950    0.0000 O.3     1  UNL1       -0.4621
      5 O           5.1350   -0.9050    0.0000 O.3     1  UNL1       -0.3262
      6 O           5.5010    0.4610    0.0000 O.co2   1  UNL1       -0.4373
      7 O           6.5010   -1.2710    0.0000 O.2     1  UNL1       -0.5172
      8 O          11.1972   -1.4050    0.0000 O.2     1  UNL1       -0.2512
      9 N           2.5369   -0.4050    0.0000 N.3     1  UNL1       -0.3279
     10 C           8.5991    0.0950    0.0000 C.3     1  UNL1        0.1128
     11 C           7.7331   -0.4050    0.0000 C.3     1  UNL1        0.0840
     12 C           9.4651   -0.4050    0.0000 C.3     1  UNL1        0.1204
     13 C           4.2690   -0.4050    0.0000 C.3     1  UNL1        0.0671
     14 C           3.4030   -0.9050    0.0000 C.3     1  UNL1        0.0171
     15 C          11.1972   -0.4050    0.0000 C.2     1  UNL1        0.3040
     16 C          12.0632    0.0950    0.0000 C.3     1  UNL1        0.0332
     17 H           8.0622    0.4050    0.0000 H       1  UNL1        0.0650
     18 H           7.3346   -0.8799    0.0000 H       1  UNL1        0.0591
     19 H           8.1316   -0.8799    0.0000 H       1  UNL1        0.0591
     20 H           9.0666   -0.8799    0.0000 H       1  UNL1        0.0724
     21 H           9.8637   -0.8799    0.0000 H       1  UNL1        0.0724
     22 H           4.6675    0.0699    0.0000 H       1  UNL1        0.0577
     23 H           3.8705    0.0699    0.0000 H       1  UNL1        0.0577
     24 H           3.0044   -1.3800    0.0000 H       1  UNL1        0.0444
     25 H           3.8015   -1.3800    0.0000 H       1  UNL1        0.0444
     26 H           9.1360    1.4050    0.0000 H       1  UNL1        0.2100
     27 H           2.0000   -0.7150    0.0000 H       1  UNL1        0.1183
     28 H           2.5369    0.2150    0.0000 H       1  UNL1        0.1183
     29 H          12.3732   -0.4419    0.0000 H       1  UNL1        0.0342
     30 H          12.6002    0.4050    0.0000 H       1  UNL1        0.0342
     31 H          11.7532    0.6319    0.0000 H       1  UNL1        0.0342
@<TRIPOS>UNITY_ATOM_ATTR
6 1
charge -1
@<TRIPOS>BOND
     1     1     2    1
     2     1     5    1
     3     1     6    1
     4     1     7    2
     5     2    11    1
     6    10     3    1
     7     3    26    1
     8     4    12    1
     9     4    15    1
    10     5    13    1
    11     8    15    2
    12     9    14    1
    13     9    27    1
    14     9    28    1
    15    10    11    1
    16    10    12    1
    17    10    17    1
    18    11    18    1
    19    11    19    1
    20    12    20    1
    21    12    21    1
    22    13    14    1
    23    13    22    1
    24    13    23    1
    25    14    24    1
    26    14    25    1
    27    15    16    1
    28    16    29    1
    29    16    30    1
    30    16    31    1
