@<TRIPOS>MOLECULE
IMPHY016414
 32 32 0 0 0
SMALL
GASTEIGER

@<TRIPOS>ATOM
      1 O           3.7320    3.0000    0.0000 O.2     1  UNL1       -0.2977
      2 C           3.7320    0.0000    0.0000 C.ar    1  UNL1       -0.0411
      3 C           3.7320    1.0000    0.0000 C.3     1  UNL1       -0.0205
      4 C           2.8660   -0.5000    0.0000 C.ar    1  UNL1       -0.0468
      5 C           4.5981   -0.5000    0.0000 C.ar    1  UNL1       -0.0468
      6 C           4.5981    1.5000    0.0000 C.3     1  UNL1        0.0095
      7 C           3.7320   -2.0000    0.0000 C.ar    1  UNL1       -0.0499
      8 C           2.8660   -1.5000    0.0000 C.ar    1  UNL1       -0.0556
      9 C           4.5981   -1.5000    0.0000 C.ar    1  UNL1       -0.0556
     10 C           2.0000    0.0000    0.0000 C.3     1  UNL1       -0.0394
     11 C           5.4641   -0.0000    0.0000 C.3     1  UNL1       -0.0394
     12 C           4.5981    2.5000    0.0000 C.2     1  UNL1        0.1306
     13 C           3.7320   -3.0000    0.0000 C.3     1  UNL1       -0.0397
     14 C           5.4641    3.0000    0.0000 C.3     1  UNL1       -0.0061
     15 H           3.5200    1.5826    0.0000 H       1  UNL1        0.0317
     16 H           3.1215    0.8923    0.0000 H       1  UNL1        0.0317
     17 H           4.8101    0.9174    0.0000 H       1  UNL1        0.0345
     18 H           5.2087    1.6077    0.0000 H       1  UNL1        0.0345
     19 H           2.3291   -1.8100    0.0000 H       1  UNL1        0.0623
     20 H           5.1350   -1.8100    0.0000 H       1  UNL1        0.0623
     21 H           2.3100    0.5369    0.0000 H       1  UNL1        0.0278
     22 H           1.4631    0.3100    0.0000 H       1  UNL1        0.0278
     23 H           1.6900   -0.5369    0.0000 H       1  UNL1        0.0278
     24 H           5.7741   -0.5369    0.0000 H       1  UNL1        0.0278
     25 H           6.0010    0.3100    0.0000 H       1  UNL1        0.0278
     26 H           5.1541    0.5369    0.0000 H       1  UNL1        0.0278
     27 H           3.1120   -3.0000    0.0000 H       1  UNL1        0.0278
     28 H           3.7320   -3.6200    0.0000 H       1  UNL1        0.0278
     29 H           4.3520   -3.0000    0.0000 H       1  UNL1        0.0278
     30 H           5.7741    2.4631    0.0000 H       1  UNL1        0.0306
     31 H           6.0010    3.3100    0.0000 H       1  UNL1        0.0306
     32 H           5.1541    3.5369    0.0000 H       1  UNL1        0.0306
@<TRIPOS>BOND
     1     1    12    2
     2     2     3    1
     3     2     4   ar
     4     2     5   ar
     5     3     6    1
     6     3    15    1
     7     3    16    1
     8     4     8   ar
     9     4    10    1
    10     5     9   ar
    11     5    11    1
    12     6    12    1
    13     6    17    1
    14     6    18    1
    15     7     8   ar
    16     7     9   ar
    17     7    13    1
    18     8    19    1
    19     9    20    1
    20    10    21    1
    21    10    22    1
    22    10    23    1
    23    11    24    1
    24    11    25    1
    25    11    26    1
    26    12    14    1
    27    13    27    1
    28    13    28    1
    29    13    29    1
    30    14    30    1
    31    14    31    1
    32    14    32    1
