@<TRIPOS>MOLECULE
IMPHY010305
 43 44 0 0 0
SMALL
GASTEIGER

@<TRIPOS>ATOM
      1 O           4.9886   -1.2272    0.0000 O.3     1  UNL1       -0.4608
      2 O           3.4188   -0.4952    0.0000 O.2     1  UNL1       -0.2508
      3 C           6.7839    0.2711    0.0000 C.3     1  UNL1        0.0104
      4 C           6.3061    2.2196    0.0000 C.3     1  UNL1       -0.0232
      5 C           7.0427    1.2370    0.0000 C.3     1  UNL1       -0.0319
      6 C           5.4112   -0.3209    0.0000 C.3     1  UNL1        0.1092
      7 C           8.1828   -0.2377    0.0000 C.3     1  UNL1       -0.0435
      8 C           5.0692    0.6188    0.0000 C.3     1  UNL1       -0.0118
      9 C           8.4417    0.7282    0.0000 C.3     1  UNL1       -0.0490
     10 C           6.5251   -0.6948    0.0000 C.3     1  UNL1       -0.0557
     11 C           6.4106    3.2142    0.0000 C.3     1  UNL1       -0.0589
     12 C           5.3926    2.6264    0.0000 C.3     1  UNL1       -0.0589
     13 C           3.9924   -1.3144    0.0000 C.2     1  UNL1        0.3076
     14 C           3.5698   -2.2207    0.0000 C.3     1  UNL1        0.0473
     15 C           2.5736   -2.3078    0.0000 C.3     1  UNL1       -0.0367
     16 C           2.1510   -3.2142    0.0000 C.3     1  UNL1       -0.0622
     17 C           2.0000   -1.4887    0.0000 C.3     1  UNL1       -0.0622
     18 H           7.0235    0.3872    0.0000 H       1  UNL1        0.0307
     19 H           5.8432   -0.7657    0.0000 H       1  UNL1        0.0739
     20 H           7.9879   -0.8263    0.0000 H       1  UNL1        0.0272
     21 H           8.7768   -0.4155    0.0000 H       1  UNL1        0.0272
     22 H           4.8749    1.2075    0.0000 H       1  UNL1        0.0304
     23 H           4.4834    0.4156    0.0000 H       1  UNL1        0.0304
     24 H           9.0356    0.5504    0.0000 H       1  UNL1        0.0268
     25 H           8.6366    1.3168    0.0000 H       1  UNL1        0.0268
     26 H           5.9262   -0.5344    0.0000 H       1  UNL1        0.0236
     27 H           6.3646   -1.2937    0.0000 H       1  UNL1        0.0236
     28 H           7.1240   -0.8553    0.0000 H       1  UNL1        0.0236
     29 H           5.6447    3.1928    0.0000 H       1  UNL1        0.0235
     30 H           4.8262    2.8786    0.0000 H       1  UNL1        0.0235
     31 H           7.0272    3.1494    0.0000 H       1  UNL1        0.0235
     32 H           6.4755    3.8308    0.0000 H       1  UNL1        0.0235
     33 H           5.7940    3.2790    0.0000 H       1  UNL1        0.0235
     34 H           5.1404    2.0600    0.0000 H       1  UNL1        0.0235
     35 H           3.5157   -2.8383    0.0000 H       1  UNL1        0.0380
     36 H           4.1686   -2.3812    0.0000 H       1  UNL1        0.0380
     37 H           2.8356   -1.7459    0.0000 H       1  UNL1        0.0301
     38 H           1.5890   -2.9521    0.0000 H       1  UNL1        0.0232
     39 H           1.8889   -3.7761    0.0000 H       1  UNL1        0.0232
     40 H           2.7129   -3.4762    0.0000 H       1  UNL1        0.0232
     41 H           2.5079   -1.1331    0.0000 H       1  UNL1        0.0232
     42 H           1.6444   -0.9808    0.0000 H       1  UNL1        0.0232
     43 H           1.4921   -1.8443    0.0000 H       1  UNL1        0.0232
@<TRIPOS>BOND
     1     6     1    1
     2     1    13    1
     3     2    13    2
     4     3     4    1
     5     3     6    1
     6     3     7    1
     7     3    10    1
     8     4     5    1
     9     4    11    1
    10     4    12    1
    11     5     8    1
    12     5     9    1
    13     5    18    1
    14     6     8    1
    15     6    19    1
    16     7     9    1
    17     7    20    1
    18     7    21    1
    19     8    22    1
    20     8    23    1
    21     9    24    1
    22     9    25    1
    23    10    26    1
    24    10    27    1
    25    10    28    1
    26    11    31    1
    27    11    32    1
    28    11    33    1
    29    12    29    1
    30    12    30    1
    31    12    34    1
    32    13    14    1
    33    14    15    1
    34    14    35    1
    35    14    36    1
    36    15    16    1
    37    15    17    1
    38    15    37    1
    39    16    38    1
    40    16    39    1
    41    16    40    1
    42    17    41    1
    43    17    42    1
    44    17    43    1
