@<TRIPOS>MOLECULE
IMPHY016928
 41 42 0 0 0
SMALL
GASTEIGER

@<TRIPOS>ATOM
      1 O           2.6200   -2.1830    0.0000 O.3     1  UNL1       -0.3885
      2 O           6.6501   -1.3411    0.0000 O.2     1  UNL1       -0.2924
      3 C           3.9860   -0.8170    0.0000 C.3     1  UNL1        0.0011
      4 C           3.9860    0.1830    0.0000 C.3     1  UNL1       -0.0134
      5 C           3.1200    0.6830    0.0000 C.3     1  UNL1       -0.0320
      6 C           3.1200   -1.3170    0.0000 C.3     1  UNL1        0.0671
      7 C           2.2540    0.1830    0.0000 C.3     1  UNL1       -0.0468
      8 C           2.2540   -0.8170    0.0000 C.3     1  UNL1       -0.0237
      9 C           3.1200    1.6830    0.0000 C.3     1  UNL1       -0.0433
     10 C           4.8800   -1.3516    0.0000 C.3     1  UNL1        0.0161
     11 C           4.8800    0.7177    0.0000 C.2     1  UNL1       -0.0741
     12 C           3.6200   -2.1830    0.0000 C.3     1  UNL1       -0.0358
     13 C           5.7860   -0.8378    0.0000 C.2     1  UNL1        0.1591
     14 C           5.7860    0.2038    0.0000 C.2     1  UNL1       -0.0117
     15 C           2.2540    2.1830    0.0000 C.3     1  UNL1       -0.0624
     16 C           3.9860    2.1830    0.0000 C.3     1  UNL1       -0.0624
     17 C           6.6501    0.7072    0.0000 C.3     1  UNL1       -0.0367
     18 H           3.9795   -1.6670    0.0000 H       1  UNL1        0.0338
     19 H           4.7254   -0.2363    0.0000 H       1  UNL1        0.0350
     20 H           3.6569    0.9930    0.0000 H       1  UNL1        0.0309
     21 H           2.0419    0.7656    0.0000 H       1  UNL1        0.0269
     22 H           1.6434    0.0754    0.0000 H       1  UNL1        0.0269
     23 H           1.6434   -0.7093    0.0000 H       1  UNL1        0.0293
     24 H           2.0419   -1.3996    0.0000 H       1  UNL1        0.0293
     25 H           2.5831    1.3730    0.0000 H       1  UNL1        0.0298
     26 H           4.4754   -1.8214    0.0000 H       1  UNL1        0.0349
     27 H           5.2736   -1.8307    0.0000 H       1  UNL1        0.0349
     28 H           4.8728    1.3376    0.0000 H       1  UNL1        0.0579
     29 H           3.0831   -2.4930    0.0000 H       1  UNL1        0.0257
     30 H           3.9300   -2.7200    0.0000 H       1  UNL1        0.0257
     31 H           4.1569   -1.8730    0.0000 H       1  UNL1        0.0257
     32 H           2.0000   -2.1830    0.0000 H       1  UNL1        0.2102
     33 H           2.5640    2.7200    0.0000 H       1  UNL1        0.0232
     34 H           1.7170    2.4930    0.0000 H       1  UNL1        0.0232
     35 H           1.9440    1.6461    0.0000 H       1  UNL1        0.0232
     36 H           4.2960    1.6461    0.0000 H       1  UNL1        0.0232
     37 H           4.5230    2.4930    0.0000 H       1  UNL1        0.0232
     38 H           3.6760    2.7200    0.0000 H       1  UNL1        0.0232
     39 H           6.9622    0.1714    0.0000 H       1  UNL1        0.0278
     40 H           7.1859    1.0192    0.0000 H       1  UNL1        0.0278
     41 H           6.3381    1.2429    0.0000 H       1  UNL1        0.0278
@<TRIPOS>BOND
     1     6     1    1
     2     1    32    1
     3     2    13    2
     4     3     4    1
     5     3     6    1
     6     3    10    1
     7     3    18    1
     8     4     5    1
     9     4    11    1
    10     4    19    1
    11     5     7    1
    12     5     9    1
    13     5    20    1
    14     6     8    1
    15     6    12    1
    16     7     8    1
    17     7    21    1
    18     7    22    1
    19     8    23    1
    20     8    24    1
    21     9    15    1
    22     9    16    1
    23     9    25    1
    24    10    13    1
    25    10    26    1
    26    10    27    1
    27    11    14    2
    28    11    28    1
    29    12    29    1
    30    12    30    1
    31    12    31    1
    32    13    14    1
    33    14    17    1
    34    15    33    1
    35    15    34    1
    36    15    35    1
    37    16    36    1
    38    16    37    1
    39    16    38    1
    40    17    39    1
    41    17    40    1
    42    17    41    1
