@<TRIPOS>MOLECULE
IMPHY013045
 49 51 0 0 0
SMALL
GASTEIGER

@<TRIPOS>ATOM
      1 O           6.3981   -1.8193    0.0000 O.2     1  UNL1       -0.2919
      2 O           3.7782    1.7121    0.0000 O.2     1  UNL1       -0.2876
      3 O           7.3022   -0.3225    0.0000 O.2     1  UNL1       -0.2869
      4 C           3.8000   -1.3193    0.0000 C.3     1  UNL1       -0.0194
      5 C           3.8000   -0.3193    0.0000 C.3     1  UNL1        0.0011
      6 C           2.9061   -1.8540    0.0000 C.3     1  UNL1       -0.0309
      7 C           2.9061    0.2153    0.0000 C.3     1  UNL1       -0.0432
      8 C           2.0000   -1.3402    0.0000 C.3     1  UNL1       -0.0476
      9 C           2.0000   -0.2985    0.0000 C.3     1  UNL1       -0.0518
     10 C           4.6660   -1.8193    0.0000 C.3     1  UNL1        0.0147
     11 C           4.6660    0.1807    0.0000 C.2     1  UNL1        0.0196
     12 C           3.8000    0.6807    0.0000 C.3     1  UNL1       -0.0551
     13 C           2.4161   -2.7258    0.0000 C.3     1  UNL1       -0.0595
     14 C           3.4160   -2.7142    0.0000 C.3     1  UNL1       -0.0595
     15 C           5.5321   -0.3193    0.0000 C.2     1  UNL1        0.0716
     16 C           5.5321   -1.3193    0.0000 C.2     1  UNL1        0.1675
     17 C           4.6500    1.2222    0.0000 C.2     1  UNL1        0.1838
     18 C           6.4421    0.1875    0.0000 C.2     1  UNL1        0.1933
     19 C           6.4501    1.2291    0.0000 C.2     1  UNL1        0.0062
     20 C           5.5480    1.7499    0.0000 C.2     1  UNL1       -0.0076
     21 C           7.3180    1.7258    0.0000 C.3     1  UNL1       -0.0178
     22 C           7.3219    2.7258    0.0000 C.3     1  UNL1       -0.0585
     23 C           8.1821    1.2224    0.0000 C.3     1  UNL1       -0.0585
     24 H           3.8066   -2.1693    0.0000 H       1  UNL1        0.0319
     25 H           3.3107    0.6851    0.0000 H       1  UNL1        0.0274
     26 H           2.5124    0.6943    0.0000 H       1  UNL1        0.0274
     27 H           1.3891   -1.2341    0.0000 H       1  UNL1        0.0271
     28 H           1.7909   -1.9238    0.0000 H       1  UNL1        0.0271
     29 H           1.7909    0.2852    0.0000 H       1  UNL1        0.0266
     30 H           1.3891   -0.4046    0.0000 H       1  UNL1        0.0266
     31 H           4.2675   -2.2943    0.0000 H       1  UNL1        0.0348
     32 H           5.0646   -2.2943    0.0000 H       1  UNL1        0.0348
     33 H           4.4200    0.6807    0.0000 H       1  UNL1        0.0238
     34 H           3.8000    1.3007    0.0000 H       1  UNL1        0.0238
     35 H           3.1800    0.6807    0.0000 H       1  UNL1        0.0238
     36 H           1.8756   -2.4220    0.0000 H       1  UNL1        0.0235
     37 H           2.1123   -3.2662    0.0000 H       1  UNL1        0.0235
     38 H           2.9566   -3.0295    0.0000 H       1  UNL1        0.0235
     39 H           2.8827   -3.0304    0.0000 H       1  UNL1        0.0235
     40 H           3.7322   -3.2475    0.0000 H       1  UNL1        0.0235
     41 H           3.9494   -2.3980    0.0000 H       1  UNL1        0.0235
     42 H           5.5456    2.3699    0.0000 H       1  UNL1        0.0660
     43 H           7.8562    2.0337    0.0000 H       1  UNL1        0.0345
     44 H           7.9419    2.7234    0.0000 H       1  UNL1        0.0235
     45 H           7.3243    3.3458    0.0000 H       1  UNL1        0.0235
     46 H           6.7019    2.7281    0.0000 H       1  UNL1        0.0235
     47 H           7.8701    0.6867    0.0000 H       1  UNL1        0.0235
     48 H           8.7179    0.9104    0.0000 H       1  UNL1        0.0235
     49 H           8.4942    1.7582    0.0000 H       1  UNL1        0.0235
@<TRIPOS>BOND
     1     1    16    2
     2     2    17    2
     3     3    18    2
     4     4     5    1
     5     4     6    1
     6     4    10    1
     7     4    24    1
     8     5     7    1
     9     5    11    1
    10     5    12    1
    11     6     8    1
    12     6    13    1
    13     6    14    1
    14     7     9    1
    15     7    25    1
    16     7    26    1
    17     8     9    1
    18     8    27    1
    19     8    28    1
    20     9    29    1
    21     9    30    1
    22    10    16    1
    23    10    31    1
    24    10    32    1
    25    11    15    2
    26    11    17    1
    27    12    33    1
    28    12    34    1
    29    12    35    1
    30    13    36    1
    31    13    37    1
    32    13    38    1
    33    14    39    1
    34    14    40    1
    35    14    41    1
    36    15    16    1
    37    15    18    1
    38    17    20    1
    39    18    19    1
    40    19    20    2
    41    19    21    1
    42    20    42    1
    43    21    22    1
    44    21    23    1
    45    21    43    1
    46    22    44    1
    47    22    45    1
    48    22    46    1
    49    23    47    1
    50    23    48    1
    51    23    49    1
