@<TRIPOS>MOLECULE
IMPHY013470
 72 75 0 0 0
SMALL
GASTEIGER

@<TRIPOS>ATOM
      1 O           6.8671   -2.9083    0.0000 O.3     1  UNL1       -0.3093
      2 O           6.0010   -1.4083    0.0000 O.2     1  UNL1       -0.4699
      3 O           8.9900    0.8470    0.0000 O.3     1  UNL1       -0.4534
      4 O           5.1350   -2.9083    0.0000 O.3     1  UNL1       -0.3404
      5 O           6.8671   -4.9083    0.0000 O.3     1  UNL1       -0.3841
      6 O           5.1350   -5.9083    0.0000 O.3     1  UNL1       -0.3864
      7 O           9.9685   -2.8697    0.0000 O.3     1  UNL1       -0.3907
      8 O           3.4030   -4.9083    0.0000 O.3     1  UNL1       -0.3865
      9 O           6.0010    1.5917    0.0000 O.3     1  UNL1       -0.4646
     10 O           7.7331    1.5917    0.0000 O.2     1  UNL1       -0.2452
     11 O           2.5369   -3.4083    0.0000 O.3     1  UNL1       -0.3924
     12 O          10.6363    0.3089    0.0000 O.2     1  UNL1       -0.2456
     13 O          12.5003    6.0120    0.0000 O.3     1  UNL1       -0.4951
     14 C           7.7331   -1.4083    0.0000 C.3     1  UNL1        0.0557
     15 C           7.7331   -0.4083    0.0000 C.3     1  UNL1        0.0468
     16 C           8.6793   -0.1035    0.0000 C.3     1  UNL1        0.1297
     17 C           6.8671   -1.9083    0.0000 C.3     1  UNL1        0.2107
     18 C           8.6793   -1.7130    0.0000 C.2     1  UNL1       -0.0353
     19 C           9.2629   -0.9083    0.0000 C.2     1  UNL1       -0.0415
     20 C           6.8671    0.0917    0.0000 C.2     1  UNL1        0.0784
     21 C           6.0010   -3.4083    0.0000 C.3     1  UNL1        0.1918
     22 C           6.0010   -4.4083    0.0000 C.3     1  UNL1        0.1342
     23 C           5.1350   -4.9083    0.0000 C.3     1  UNL1        0.1141
     24 C           8.9900   -2.6635    0.0000 C.3     1  UNL1        0.0659
     25 C           4.2690   -4.4083    0.0000 C.3     1  UNL1        0.1119
     26 C           6.0010   -0.4083    0.0000 C.2     1  UNL1        0.0983
     27 C           4.2690   -3.4083    0.0000 C.3     1  UNL1        0.1130
     28 C           6.8671    1.0917    0.0000 C.2     1  UNL1        0.3382
     29 C           3.4030   -2.9083    0.0000 C.3     1  UNL1        0.0730
     30 C           9.9685    1.0532    0.0000 C.2     1  UNL1        0.3325
     31 C          10.2791    2.0037    0.0000 C.2     1  UNL1        0.0231
     32 C           6.0010    2.5917    0.0000 C.3     1  UNL1        0.0820
     33 C          11.2576    2.2100    0.0000 C.2     1  UNL1       -0.0478
     34 C          11.5683    3.1605    0.0000 C.ar    1  UNL1       -0.0246
     35 C          10.9005    3.9048    0.0000 C.ar    1  UNL1       -0.0511
     36 C          12.5468    3.3667    0.0000 C.ar    1  UNL1       -0.0511
     37 C          11.2111    4.8553    0.0000 C.ar    1  UNL1       -0.0194
     38 C          12.8575    4.3172    0.0000 C.ar    1  UNL1       -0.0194
     39 C          12.1896    5.0615    0.0000 C.ar    1  UNL1        0.1201
     40 C          13.4788    6.2183    0.0000 C.3     1  UNL1        0.0788
     41 H           7.8230   -2.2535    0.0000 H       1  UNL1        0.0414
     42 H           7.8230    0.4370    0.0000 H       1  UNL1        0.0399
     43 H           8.2418    0.3358    0.0000 H       1  UNL1        0.0786
     44 H           7.4040   -2.2183    0.0000 H       1  UNL1        0.1062
     45 H           9.8829   -0.9083    0.0000 H       1  UNL1        0.0609
     46 H           6.0010   -2.7883    0.0000 H       1  UNL1        0.0939
     47 H           6.0010   -5.0282    0.0000 H       1  UNL1        0.0671
     48 H           4.5981   -5.2183    0.0000 H       1  UNL1        0.0648
     49 H           8.3762   -2.7509    0.0000 H       1  UNL1        0.0604
     50 H           8.9694   -3.2832    0.0000 H       1  UNL1        0.0604
     51 H           4.2690   -5.0282    0.0000 H       1  UNL1        0.0647
     52 H           5.4641   -0.0983    0.0000 H       1  UNL1        0.1029
     53 H           4.2690   -2.7883    0.0000 H       1  UNL1        0.0647
     54 H           3.8015   -2.4333    0.0000 H       1  UNL1        0.0584
     55 H           3.0044   -2.4333    0.0000 H       1  UNL1        0.0584
     56 H           6.8671   -5.5283    0.0000 H       1  UNL1        0.2101
     57 H           4.5981   -6.2183    0.0000 H       1  UNL1        0.2100
     58 H          10.1611   -3.4590    0.0000 H       1  UNL1        0.2098
     59 H           3.4030   -5.5283    0.0000 H       1  UNL1        0.2100
     60 H           2.0000   -3.0983    0.0000 H       1  UNL1        0.2095
     61 H           9.8651    2.4652    0.0000 H       1  UNL1        0.0689
     62 H           6.6210    2.5917    0.0000 H       1  UNL1        0.0661
     63 H           6.0010    3.2117    0.0000 H       1  UNL1        0.0661
     64 H           5.3810    2.5917    0.0000 H       1  UNL1        0.0661
     65 H          11.6717    1.7485    0.0000 H       1  UNL1        0.0626
     66 H          10.2938    3.7769    0.0000 H       1  UNL1        0.0625
     67 H          12.9609    2.9052    0.0000 H       1  UNL1        0.0625
     68 H          10.7971    5.3168    0.0000 H       1  UNL1        0.0654
     69 H          13.4641    4.4451    0.0000 H       1  UNL1        0.0654
     70 H          13.6067    5.6116    0.0000 H       1  UNL1        0.0660
     71 H          14.0855    6.3461    0.0000 H       1  UNL1        0.0660
     72 H          13.3509    6.8249    0.0000 H       1  UNL1        0.0660
@<TRIPOS>BOND
     1    17     1    1
     2    21     1    1
     3     2    17    1
     4     2    26    1
     5    16     3    1
     6     3    30    1
     7     4    21    1
     8     4    27    1
     9    22     5    1
    10     5    56    1
    11    23     6    1
    12     6    57    1
    13     7    24    1
    14     7    58    1
    15    25     8    1
    16     8    59    1
    17     9    28    1
    18     9    32    1
    19    10    28    2
    20    11    29    1
    21    11    60    1
    22    12    30    2
    23    13    39    1
    24    13    40    1
    25    14    15    1
    26    14    17    1
    27    14    18    1
    28    14    41    1
    29    15    16    1
    30    15    20    1
    31    15    42    1
    32    16    19    1
    33    16    43    1
    34    17    44    1
    35    18    19    2
    36    18    24    1
    37    19    45    1
    38    20    26    2
    39    20    28    1
    40    21    22    1
    41    21    46    1
    42    22    23    1
    43    22    47    1
    44    23    25    1
    45    23    48    1
    46    24    49    1
    47    24    50    1
    48    25    27    1
    49    25    51    1
    50    26    52    1
    51    27    29    1
    52    27    53    1
    53    29    54    1
    54    29    55    1
    55    30    31    1
    56    31    33    2
    57    31    61    1
    58    32    62    1
    59    32    63    1
    60    32    64    1
    61    33    34    1
    62    33    65    1
    63    34    35   ar
    64    34    36   ar
    65    35    37   ar
    66    35    66    1
    67    36    38   ar
    68    36    67    1
    69    37    39   ar
    70    37    68    1
    71    38    39   ar
    72    38    69    1
    73    40    70    1
    74    40    71    1
    75    40    72    1
