@<TRIPOS>MOLECULE
IMPHY014547
 87 91 0 0 0
SMALL
GASTEIGER

@<TRIPOS>ATOM
      1 O           9.9036   -0.5603    0.0000 O.3     1  UNL1       -0.3915
      2 O           2.0000   -3.0921    0.0000 O.2     1  UNL1       -0.2968
      3 O           9.2562    3.1346    0.0000 O.3     1  UNL1       -0.3889
      4 O          10.6996    3.5639    0.0000 O.3     1  UNL1       -0.3860
      5 C           5.5301   -1.0680    0.0000 C.3     1  UNL1       -0.0194
      6 C           4.6641   -1.5680    0.0000 C.3     1  UNL1       -0.0187
      7 C           4.6638   -0.5675    0.0000 C.3     1  UNL1       -0.0401
      8 C           6.3961   -1.5680    0.0000 C.3     1  UNL1       -0.0288
      9 C           7.3062   -1.0611    0.0000 C.3     1  UNL1       -0.0206
     10 C           4.6641   -2.5680    0.0000 C.3     1  UNL1       -0.0230
     11 C           5.5141   -0.0265    0.0000 C.3     1  UNL1       -0.0460
     12 C           7.3142   -0.0195    0.0000 C.3     1  UNL1       -0.0209
     13 C           3.7702   -1.0333    0.0000 C.3     1  UNL1       -0.0399
     14 C           6.3961   -2.5680    0.0000 C.3     1  UNL1       -0.0489
     15 C           6.4121    0.5013    0.0000 C.3     1  UNL1       -0.0462
     16 C           5.5301   -3.0680    0.0000 C.3     1  UNL1       -0.0485
     17 C           3.7702   -3.1026    0.0000 C.3     1  UNL1        0.0267
     18 C           8.3022    0.2903    0.0000 C.3     1  UNL1       -0.0064
     19 C           8.2893   -1.3861    0.0000 C.3     1  UNL1       -0.0204
     20 C           8.9036   -0.5526    0.0000 C.3     1  UNL1        0.0593
     21 C           7.2984   -2.0611    0.0000 C.3     1  UNL1       -0.0587
     22 C           2.8641   -1.5472    0.0000 C.3     1  UNL1        0.0069
     23 C           7.3219    0.9804    0.0000 C.3     1  UNL1       -0.0587
     24 C           2.8641   -2.5888    0.0000 C.2     1  UNL1        0.1392
     25 C           8.6202    1.2384    0.0000 C.3     1  UNL1       -0.0358
     26 C           3.2802   -3.9744    0.0000 C.3     1  UNL1       -0.0528
     27 C           4.2801   -3.9628    0.0000 C.3     1  UNL1       -0.0528
     28 C           9.6003    1.4370    0.0000 C.3     1  UNL1       -0.0212
     29 C           7.9581    1.9878    0.0000 C.3     1  UNL1       -0.0620
     30 C           9.9182    2.3852    0.0000 C.3     1  UNL1        0.0841
     31 C          10.8983    2.5838    0.0000 C.3     1  UNL1        0.0913
     32 C          11.8784    2.7825    0.0000 C.3     1  UNL1       -0.0156
     33 C          11.0970    1.6038    0.0000 C.3     1  UNL1       -0.0334
     34 C          12.1964    3.7306    0.0000 C.3     1  UNL1       -0.0600
     35 C          12.5405    2.0331    0.0000 C.3     1  UNL1       -0.0600
     36 H           4.8759    0.0151    0.0000 H       1  UNL1        0.0276
     37 H           4.0532   -0.4599    0.0000 H       1  UNL1        0.0276
     38 H           7.1290   -1.9986    0.0000 H       1  UNL1        0.0312
     39 H           4.6706   -3.4179    0.0000 H       1  UNL1        0.0316
     40 H           5.2960    0.5539    0.0000 H       1  UNL1        0.0271
     41 H           4.9049   -0.1420    0.0000 H       1  UNL1        0.0271
     42 H           4.1748   -0.5635    0.0000 H       1  UNL1        0.0275
     43 H           3.3765   -0.5543    0.0000 H       1  UNL1        0.0275
     44 H           6.6082   -3.1506    0.0000 H       1  UNL1        0.0268
     45 H           7.0067   -2.4603    0.0000 H       1  UNL1        0.0268
     46 H           6.8094    0.9773    0.0000 H       1  UNL1        0.0271
     47 H           6.0111    0.9742    0.0000 H       1  UNL1        0.0271
     48 H           5.1316   -3.5429    0.0000 H       1  UNL1        0.0268
     49 H           5.9286   -3.5429    0.0000 H       1  UNL1        0.0268
     50 H           7.8682    0.7330    0.0000 H       1  UNL1        0.0334
     51 H           8.0339   -1.9511    0.0000 H       1  UNL1        0.0296
     52 H           8.8243   -1.6995    0.0000 H       1  UNL1        0.0296
     53 H           9.1811   -1.1071    0.0000 H       1  UNL1        0.0596
     54 H           6.6785   -2.0563    0.0000 H       1  UNL1        0.0235
     55 H           7.2937   -2.6811    0.0000 H       1  UNL1        0.0235
     56 H           7.9184   -2.0659    0.0000 H       1  UNL1        0.0235
     57 H           2.6550   -0.9635    0.0000 H       1  UNL1        0.0342
     58 H           2.2532   -1.6532    0.0000 H       1  UNL1        0.0342
     59 H           7.9419    0.9757    0.0000 H       1  UNL1        0.0235
     60 H           7.3267    1.6004    0.0000 H       1  UNL1        0.0235
     61 H           6.7019    0.9852    0.0000 H       1  UNL1        0.0235
     62 H           8.8173    1.8262    0.0000 H       1  UNL1        0.0303
     63 H           2.7397   -3.6706    0.0000 H       1  UNL1        0.0239
     64 H           2.9764   -4.5149    0.0000 H       1  UNL1        0.0239
     65 H           3.8207   -4.2782    0.0000 H       1  UNL1        0.0239
     66 H           3.7468   -4.2790    0.0000 H       1  UNL1        0.0239
     67 H           4.5963   -4.4961    0.0000 H       1  UNL1        0.0239
     68 H           4.8134   -3.6466    0.0000 H       1  UNL1        0.0239
     69 H          10.2095   -1.0996    0.0000 H       1  UNL1        0.2098
     70 H           9.6160    0.8173    0.0000 H       1  UNL1        0.0294
     71 H          10.2134    1.3450    0.0000 H       1  UNL1        0.0294
     72 H           8.4228    2.3983    0.0000 H       1  UNL1        0.0233
     73 H           7.5476    2.4525    0.0000 H       1  UNL1        0.0233
     74 H           7.4935    1.5773    0.0000 H       1  UNL1        0.0233
     75 H           9.3106    2.2620    0.0000 H       1  UNL1        0.0622
     76 H           9.4533    3.7224    0.0000 H       1  UNL1        0.2099
     77 H          12.4860    2.9057    0.0000 H       1  UNL1        0.0324
     78 H          10.4893    1.4806    0.0000 H       1  UNL1        0.0258
     79 H          11.2201    0.9961    0.0000 H       1  UNL1        0.0258
     80 H          11.7046    1.7269    0.0000 H       1  UNL1        0.0258
     81 H          11.1643    3.9744    0.0000 H       1  UNL1        0.2103
     82 H          12.7842    3.5334    0.0000 H       1  UNL1        0.0233
     83 H          12.3935    4.3184    0.0000 H       1  UNL1        0.0233
     84 H          11.6085    3.9277    0.0000 H       1  UNL1        0.0233
     85 H          12.0758    1.6226    0.0000 H       1  UNL1        0.0233
     86 H          12.9510    1.5684    0.0000 H       1  UNL1        0.0233
     87 H          13.0051    2.4436    0.0000 H       1  UNL1        0.0233
@<TRIPOS>BOND
     1    20     1    1
     2     1    69    1
     3     2    24    2
     4     3    30    1
     5     3    76    1
     6     4    31    1
     7     4    81    1
     8     5     6    1
     9     5     7    1
    10     5     8    1
    11     5    11    1
    12     6     7    1
    13     6    10    1
    14     6    13    1
    15     7    36    1
    16     7    37    1
    17     8     9    1
    18     8    14    1
    19     8    38    1
    20     9    12    1
    21     9    19    1
    22     9    21    1
    23    10    16    1
    24    10    17    1
    25    10    39    1
    26    11    15    1
    27    11    40    1
    28    11    41    1
    29    12    15    1
    30    12    18    1
    31    12    23    1
    32    13    22    1
    33    13    42    1
    34    13    43    1
    35    14    16    1
    36    14    44    1
    37    14    45    1
    38    15    46    1
    39    15    47    1
    40    16    48    1
    41    16    49    1
    42    17    24    1
    43    17    26    1
    44    17    27    1
    45    18    20    1
    46    18    25    1
    47    18    50    1
    48    19    20    1
    49    19    51    1
    50    19    52    1
    51    20    53    1
    52    21    54    1
    53    21    55    1
    54    21    56    1
    55    22    24    1
    56    22    57    1
    57    22    58    1
    58    23    59    1
    59    23    60    1
    60    23    61    1
    61    25    28    1
    62    25    29    1
    63    25    62    1
    64    26    63    1
    65    26    64    1
    66    26    65    1
    67    27    66    1
    68    27    67    1
    69    27    68    1
    70    28    30    1
    71    28    70    1
    72    28    71    1
    73    29    72    1
    74    29    73    1
    75    29    74    1
    76    30    31    1
    77    30    75    1
    78    31    32    1
    79    31    33    1
    80    32    34    1
    81    32    35    1
    82    32    77    1
    83    33    78    1
    84    33    79    1
    85    33    80    1
    86    34    82    1
    87    34    83    1
    88    34    84    1
    89    35    85    1
    90    35    86    1
    91    35    87    1
