@<TRIPOS>MOLECULE
IMPHY003885
 35 38 0 0 0
SMALL
GASTEIGER

@<TRIPOS>ATOM
      1 O           7.5110    1.3878    0.0000 O.3     1  UNL1       -0.3286
      2 O           7.3206   -1.0957    0.0000 O.3     1  UNL1       -0.4470
      3 O           5.6648    1.9038    0.0000 O.2     1  UNL1       -0.4701
      4 O           8.9025   -1.9038    0.0000 O.2     1  UNL1       -0.2452
      5 O           2.9327    0.7592    0.0000 O.3     1  UNL1       -0.4646
      6 O           3.5572   -0.8564    0.0000 O.2     1  UNL1       -0.2452
      7 C           6.2020    0.4367    0.0000 C.3     1  UNL1        0.0784
      8 C           7.0110   -0.1510    0.0000 C.3     1  UNL1        0.1716
      9 C           7.8200    0.4367    0.0000 C.3     1  UNL1        0.1377
     10 C           5.3992   -0.1496    0.0000 C.3     1  UNL1        0.0246
     11 C           6.5110    1.3878    0.0000 C.3     1  UNL1        0.2093
     12 C           6.7013   -1.0957    0.0000 C.2     1  UNL1       -0.0409
     13 C           5.7073   -1.0948    0.0000 C.2     1  UNL1       -0.0758
     14 C           8.6227   -0.1496    0.0000 C.2     1  UNL1        0.0652
     15 C           4.6441    0.4922    0.0000 C.2     1  UNL1        0.0781
     16 C           8.3147   -1.0948    0.0000 C.2     1  UNL1        0.3384
     17 C           4.7712    1.4752    0.0000 C.2     1  UNL1        0.0984
     18 C           9.5743    0.1577    0.0000 C.2     1  UNL1       -0.0745
     19 C           3.7114    0.1317    0.0000 C.2     1  UNL1        0.3384
     20 C          10.3163   -0.5127    0.0000 C.3     1  UNL1       -0.0460
     21 C           2.0000    0.3987    0.0000 C.3     1  UNL1        0.0820
     22 H           5.9393   -0.3717    0.0000 H       1  UNL1        0.0414
     23 H           8.5083    0.9355    0.0000 H       1  UNL1        0.0694
     24 H           4.6933   -0.6230    0.0000 H       1  UNL1        0.0401
     25 H           6.7408    2.2061    0.0000 H       1  UNL1        0.1060
     26 H           7.0649   -1.5979    0.0000 H       1  UNL1        0.0609
     27 H           5.3428   -1.5964    0.0000 H       1  UNL1        0.0576
     28 H           4.2688    1.8384    0.0000 H       1  UNL1        0.1029
     29 H           9.7042    0.7639    0.0000 H       1  UNL1        0.0575
     30 H           9.9006   -0.9727    0.0000 H       1  UNL1        0.0272
     31 H          10.7763   -0.9284    0.0000 H       1  UNL1        0.0272
     32 H          10.7319   -0.0527    0.0000 H       1  UNL1        0.0272
     33 H           1.7765    0.9770    0.0000 H       1  UNL1        0.0661
     34 H           1.4217    0.1751    0.0000 H       1  UNL1        0.0661
     35 H           2.2235   -0.1796    0.0000 H       1  UNL1        0.0661
@<TRIPOS>BOND
     1     1     9    1
     2     1    11    1
     3     8     2    1
     4     2    16    1
     5     3    11    1
     6     3    17    1
     7     4    16    2
     8     5    19    1
     9     5    21    1
    10     6    19    2
    11     7     8    1
    12     7    10    1
    13     7    11    1
    14     7    22    1
    15     8     9    1
    16     8    12    1
    17     9    14    1
    18     9    23    1
    19    10    13    1
    20    10    15    1
    21    10    24    1
    22    11    25    1
    23    12    13    2
    24    12    26    1
    25    13    27    1
    26    14    16    1
    27    14    18    2
    28    15    17    2
    29    15    19    1
    30    17    28    1
    31    18    20    1
    32    18    29    1
    33    20    30    1
    34    20    31    1
    35    20    32    1
    36    21    33    1
    37    21    34    1
    38    21    35    1
