@<TRIPOS>MOLECULE
IMPHY012180
 24 25 0 0 0
SMALL
GASTEIGER

@<TRIPOS>ATOM
      1 O           2.0000    1.6785    0.0000 O.2     1  UNL1       -0.1260
      2 N           3.6942    1.3184    0.0000 N.pl3   1  UNL1       -0.2128
      3 N           2.7431    1.0094    0.0000 N.2     1  UNL1        0.0449
      4 N           5.3692   -1.7694    0.0000 N.ar    1  UNL1       -0.2629
      5 C           4.5032    0.7306    0.0000 C.3     1  UNL1        0.0702
      6 C           5.3122    1.3184    0.0000 C.3     1  UNL1       -0.0271
      7 C           5.0032    2.2694    0.0000 C.3     1  UNL1       -0.0335
      8 C           4.0032    2.2694    0.0000 C.3     1  UNL1        0.0334
      9 C           4.5032   -0.2694    0.0000 C.ar    1  UNL1       -0.0074
     10 C           3.6372   -0.7694    0.0000 C.ar    1  UNL1       -0.0539
     11 C           5.3692   -0.7694    0.0000 C.ar    1  UNL1        0.0325
     12 C           3.6372   -1.7694    0.0000 C.ar    1  UNL1       -0.0433
     13 C           4.5032   -2.2694    0.0000 C.ar    1  UNL1        0.0276
     14 H           3.9508    0.4491    0.0000 H       1  UNL1        0.0567
     15 H           5.6222    0.7814    0.0000 H       1  UNL1        0.0287
     16 H           5.8786    1.5705    0.0000 H       1  UNL1        0.0287
     17 H           5.6097    2.3983    0.0000 H       1  UNL1        0.0282
     18 H           4.9384    2.8860    0.0000 H       1  UNL1        0.0282
     19 H           4.0680    2.8860    0.0000 H       1  UNL1        0.0481
     20 H           3.3968    2.3983    0.0000 H       1  UNL1        0.0481
     21 H           3.1003   -0.4594    0.0000 H       1  UNL1        0.0622
     22 H           5.9062   -0.4594    0.0000 H       1  UNL1        0.0833
     23 H           3.1003   -2.0794    0.0000 H       1  UNL1        0.0633
     24 H           4.5032   -2.8894    0.0000 H       1  UNL1        0.0829
@<TRIPOS>BOND
     1     1     3    2
     2     2     3    1
     3     2     5    1
     4     2     8    1
     5     4    11   ar
     6     4    13   ar
     7     5     6    1
     8     5     9    1
     9     5    14    1
    10     6     7    1
    11     6    15    1
    12     6    16    1
    13     7     8    1
    14     7    17    1
    15     7    18    1
    16     8    19    1
    17     8    20    1
    18     9    10   ar
    19     9    11   ar
    20    10    12   ar
    21    10    21    1
    22    11    22    1
    23    12    13   ar
    24    12    23    1
    25    13    24    1
