@<TRIPOS>MOLECULE
IMPHY001068
 28 29 0 0 0
SMALL
GASTEIGER

@<TRIPOS>ATOM
      1 O           2.0000    0.2277    0.0000 O.2     1  UNL1       -0.2754
      2 O           6.3406    1.7723    0.0000 O.3     1  UNL1       -0.4644
      3 O           4.6087    1.7523    0.0000 O.2     1  UNL1       -0.2449
      4 N           2.8660   -1.2723    0.0000 N.am    1  UNL1       -0.3084
      5 N           6.3981   -1.2931    0.0000 N.ar    1  UNL1       -0.2621
      6 C           3.7320   -1.7722    0.0000 C.3     1  UNL1        0.0473
      7 C           4.5981   -1.2723    0.0000 C.ar    1  UNL1       -0.0050
      8 C           4.5981   -0.2723    0.0000 C.ar    1  UNL1       -0.0168
      9 C           3.7320    0.2277    0.0000 C.3     1  UNL1        0.0503
     10 C           2.8660   -0.2723    0.0000 C.2     1  UNL1        0.2178
     11 C           3.7320   -2.7722    0.0000 C.3     1  UNL1       -0.0424
     12 C           5.4920    0.2624    0.0000 C.ar    1  UNL1        0.0810
     13 C           5.4920   -1.8069    0.0000 C.ar    1  UNL1        0.0328
     14 C           6.3981   -0.2514    0.0000 C.ar    1  UNL1        0.0418
     15 C           5.4804    1.2623    0.0000 C.2     1  UNL1        0.3407
     16 C           6.3291    2.7722    0.0000 C.3     1  UNL1        0.0820
     17 H           3.1951   -2.0822    0.0000 H       1  UNL1        0.0546
     18 H           4.1306    0.7027    0.0000 H       1  UNL1        0.0407
     19 H           3.3335    0.7027    0.0000 H       1  UNL1        0.0407
     20 H           2.3291   -1.5822    0.0000 H       1  UNL1        0.1493
     21 H           3.1120   -2.7722    0.0000 H       1  UNL1        0.0251
     22 H           3.7320   -3.3922    0.0000 H       1  UNL1        0.0251
     23 H           4.3520   -2.7722    0.0000 H       1  UNL1        0.0251
     24 H           5.4848   -2.4269    0.0000 H       1  UNL1        0.0833
     25 H           6.9338    0.0606    0.0000 H       1  UNL1        0.0838
     26 H           6.9490    2.7794    0.0000 H       1  UNL1        0.0661
     27 H           6.3219    3.3922    0.0000 H       1  UNL1        0.0661
     28 H           5.7091    2.7651    0.0000 H       1  UNL1        0.0661
@<TRIPOS>BOND
     1     1    10    2
     2     2    15    1
     3     2    16    1
     4     3    15    2
     5     4     6    1
     6     4    10   am
     7     4    20    1
     8     5    13   ar
     9     5    14   ar
    10     6     7    1
    11     6    11    1
    12     6    17    1
    13     7     8   ar
    14     7    13   ar
    15     8     9    1
    16     8    12   ar
    17     9    10    1
    18     9    18    1
    19     9    19    1
    20    11    21    1
    21    11    22    1
    22    11    23    1
    23    12    14   ar
    24    12    15    1
    25    13    24    1
    26    14    25    1
    27    16    26    1
    28    16    27    1
    29    16    28    1
