@<TRIPOS>MOLECULE
IMPHY008694
 41 40 0 0 0
SMALL
GASTEIGER

@<TRIPOS>ATOM
      1 O           2.5369   -0.8660    0.0000 O.3     1  UNL1       -0.3848
      2 O           8.5991   -1.3660    0.0000 O.2     1  UNL1       -0.2923
      3 C           3.4030   -0.3660    0.0000 C.3     1  UNL1        0.0814
      4 C           4.2690    0.1340    0.0000 C.3     1  UNL1       -0.0172
      5 C           5.1350   -0.3660    0.0000 C.3     1  UNL1       -0.0316
      6 C           3.9030   -1.2320    0.0000 C.3     1  UNL1       -0.0324
      7 C           6.0010    0.1340    0.0000 C.2     1  UNL1       -0.0845
      8 C           2.9030    0.5000    0.0000 C.2     1  UNL1       -0.0602
      9 C           6.8671   -0.3660    0.0000 C.2     1  UNL1       -0.0691
     10 C           7.7331    0.1340    0.0000 C.3     1  UNL1        0.0307
     11 C           6.8671   -1.3660    0.0000 C.3     1  UNL1       -0.0434
     12 C           8.5991   -0.3660    0.0000 C.2     1  UNL1        0.1600
     13 C           3.4030    1.3660    0.0000 C.2     1  UNL1       -0.1000
     14 C           9.4651    0.1340    0.0000 C.2     1  UNL1       -0.0202
     15 C          10.3312   -0.3660    0.0000 C.2     1  UNL1       -0.0724
     16 C          11.1972    0.1340    0.0000 C.3     1  UNL1       -0.0437
     17 C          10.3312   -1.3660    0.0000 C.3     1  UNL1       -0.0437
     18 H           4.6675    0.6089    0.0000 H       1  UNL1        0.0299
     19 H           3.8705    0.6089    0.0000 H       1  UNL1        0.0299
     20 H           4.7365   -0.8410    0.0000 H       1  UNL1        0.0308
     21 H           5.5335   -0.8410    0.0000 H       1  UNL1        0.0308
     22 H           3.3660   -1.5420    0.0000 H       1  UNL1        0.0260
     23 H           4.2130   -1.7690    0.0000 H       1  UNL1        0.0260
     24 H           4.4399   -0.9221    0.0000 H       1  UNL1        0.0260
     25 H           6.0010    0.7540    0.0000 H       1  UNL1        0.0572
     26 H           2.2830    0.5000    0.0000 H       1  UNL1        0.0594
     27 H           8.1316    0.6089    0.0000 H       1  UNL1        0.0390
     28 H           7.3346    0.6089    0.0000 H       1  UNL1        0.0390
     29 H           2.0000   -0.5560    0.0000 H       1  UNL1        0.2106
     30 H           6.2471   -1.3660    0.0000 H       1  UNL1        0.0274
     31 H           6.8671   -1.9860    0.0000 H       1  UNL1        0.0274
     32 H           7.4871   -1.3660    0.0000 H       1  UNL1        0.0274
     33 H           4.0230    1.3660    0.0000 H       1  UNL1        0.0533
     34 H           3.0930    1.9030    0.0000 H       1  UNL1        0.0533
     35 H           9.4651    0.7540    0.0000 H       1  UNL1        0.0652
     36 H           9.7112   -1.3660    0.0000 H       1  UNL1        0.0274
     37 H          11.5072   -0.4030    0.0000 H       1  UNL1        0.0274
     38 H          11.7341    0.4440    0.0000 H       1  UNL1        0.0274
     39 H          10.8872    0.6709    0.0000 H       1  UNL1        0.0274
     40 H          10.3312   -1.9860    0.0000 H       1  UNL1        0.0274
     41 H          10.9512   -1.3660    0.0000 H       1  UNL1        0.0274
@<TRIPOS>BOND
     1     3     1    1
     2     1    29    1
     3     2    12    2
     4     3     4    1
     5     3     6    1
     6     3     8    1
     7     4     5    1
     8     4    18    1
     9     4    19    1
    10     5     7    1
    11     5    20    1
    12     5    21    1
    13     6    22    1
    14     6    23    1
    15     6    24    1
    16     7     9    2
    17     7    25    1
    18     8    13    2
    19     8    26    1
    20     9    10    1
    21     9    11    1
    22    10    12    1
    23    10    27    1
    24    10    28    1
    25    11    30    1
    26    11    31    1
    27    11    32    1
    28    12    14    1
    29    13    33    1
    30    13    34    1
    31    14    15    2
    32    14    35    1
    33    15    16    1
    34    15    17    1
    35    16    37    1
    36    16    38    1
    37    16    39    1
    38    17    36    1
    39    17    40    1
    40    17    41    1
