@<TRIPOS>MOLECULE
IMPHY002143
 48 50 0 0 0
SMALL
GASTEIGER

@<TRIPOS>ATOM
      1 O           6.3981   -0.1754    0.0000 O.2     1  UNL1       -0.4507
      2 O           8.1301    1.8246    0.0000 O.3     1  UNL1       -0.4883
      3 O          10.7282    0.3246    0.0000 O.3     1  UNL1       -0.4913
      4 O           8.9962   -2.6754    0.0000 O.3     1  UNL1       -0.4913
      5 O          10.7282   -1.6754    0.0000 O.3     1  UNL1       -0.4885
      6 O           2.8680   -0.1995    0.0000 O.3     1  UNL1       -0.4949
      7 O           4.6497    2.8592    0.0000 O.3     1  UNL1       -0.5058
      8 O           6.3981    2.8246    0.0000 O.2     1  UNL1       -0.2830
      9 C           7.2641    0.3246    0.0000 C.ar    1  UNL1        0.1810
     10 C           5.5320    1.3246    0.0000 C.ar    1  UNL1        0.1092
     11 C           8.1301   -0.1754    0.0000 C.ar    1  UNL1        0.0282
     12 C           5.5320    0.3246    0.0000 C.ar    1  UNL1        0.1465
     13 C           7.2641    1.3246    0.0000 C.ar    1  UNL1        0.2107
     14 C           6.3981    1.8246    0.0000 C.ar    1  UNL1        0.2381
     15 C           8.1301   -1.1754    0.0000 C.ar    1  UNL1       -0.0053
     16 C           8.9962    0.3246    0.0000 C.ar    1  UNL1       -0.0053
     17 C           4.6381    1.8593    0.0000 C.ar    1  UNL1        0.1348
     18 C           4.6381   -0.2101    0.0000 C.ar    1  UNL1        0.0233
     19 C           9.8622   -0.1754    0.0000 C.ar    1  UNL1        0.1658
     20 C           8.9962   -1.6754    0.0000 C.ar    1  UNL1        0.1658
     21 C           9.8622   -1.1754    0.0000 C.ar    1  UNL1        0.2035
     22 C           3.7320    0.3038    0.0000 C.ar    1  UNL1        0.1271
     23 C           3.7320    1.3454    0.0000 C.ar    1  UNL1        0.0225
     24 C           8.1301    2.8246    0.0000 C.3     1  UNL1        0.0791
     25 C          11.5942   -0.1754    0.0000 C.3     1  UNL1        0.0790
     26 C           8.1301   -3.1754    0.0000 C.3     1  UNL1        0.0790
     27 C          10.7282   -2.6754    0.0000 C.3     1  UNL1        0.0791
     28 C           2.0000    0.2971    0.0000 C.3     1  UNL1        0.0788
     29 H           7.5932   -1.4854    0.0000 H       1  UNL1        0.0662
     30 H           8.9962    0.9446    0.0000 H       1  UNL1        0.0662
     31 H           4.6453   -0.8300    0.0000 H       1  UNL1        0.0691
     32 H           3.1963    1.6575    0.0000 H       1  UNL1        0.0691
     33 H           4.1164    3.1754    0.0000 H       1  UNL1        0.2922
     34 H           8.7501    2.8246    0.0000 H       1  UNL1        0.0660
     35 H           8.1301    3.4446    0.0000 H       1  UNL1        0.0660
     36 H           7.5101    2.8246    0.0000 H       1  UNL1        0.0660
     37 H          11.2842   -0.7123    0.0000 H       1  UNL1        0.0660
     38 H          12.1312   -0.4854    0.0000 H       1  UNL1        0.0660
     39 H          11.9042    0.3615    0.0000 H       1  UNL1        0.0660
     40 H           7.8201   -2.6385    0.0000 H       1  UNL1        0.0660
     41 H           7.5932   -3.4854    0.0000 H       1  UNL1        0.0660
     42 H           8.4401   -3.7123    0.0000 H       1  UNL1        0.0660
     43 H          10.1082   -2.6754    0.0000 H       1  UNL1        0.0660
     44 H          10.7282   -3.2954    0.0000 H       1  UNL1        0.0660
     45 H          11.3482   -2.6754    0.0000 H       1  UNL1        0.0660
     46 H           2.3079    0.8352    0.0000 H       1  UNL1        0.0660
     47 H           1.4619    0.6050    0.0000 H       1  UNL1        0.0660
     48 H           1.6921   -0.2410    0.0000 H       1  UNL1        0.0660
@<TRIPOS>BOND
     1     1     9   ar
     2     1    12   ar
     3     2    13    1
     4     2    24    1
     5     3    19    1
     6     3    25    1
     7     4    20    1
     8     4    26    1
     9     5    21    1
    10     5    27    1
    11     6    22    1
    12     6    28    1
    13     7    17    1
    14     7    33    1
    15     8    14    2
    16     9    11    1
    17     9    13   ar
    18    10    12   ar
    19    10    14   ar
    20    10    17   ar
    21    11    15   ar
    22    11    16   ar
    23    12    18   ar
    24    13    14   ar
    25    15    20   ar
    26    15    29    1
    27    16    19   ar
    28    16    30    1
    29    17    23   ar
    30    18    22   ar
    31    18    31    1
    32    19    21   ar
    33    20    21   ar
    34    22    23   ar
    35    23    32    1
    36    24    34    1
    37    24    35    1
    38    24    36    1
    39    25    37    1
    40    25    38    1
    41    25    39    1
    42    26    40    1
    43    26    41    1
    44    26    42    1
    45    27    43    1
    46    27    44    1
    47    27    45    1
    48    28    46    1
    49    28    47    1
    50    28    48    1
