@<TRIPOS>MOLECULE
IMPHY005752
 46 48 0 0 0
SMALL
GASTEIGER

@<TRIPOS>ATOM
      1 O           6.4783   -1.4954    0.0000 O.3     1  UNL1       -0.4607
      2 O           4.6660    1.3094    0.0000 O.3     1  UNL1       -0.4605
      3 O           2.9176   -2.7252    0.0000 O.3     1  UNL1       -0.3912
      4 O           8.0619   -0.6906    0.0000 O.2     1  UNL1       -0.2505
      5 O           6.1660    2.1754    0.0000 O.2     1  UNL1       -0.2512
      6 C           3.8000   -1.1906    0.0000 C.3     1  UNL1        0.0071
      7 C           3.8000   -0.1906    0.0000 C.3     1  UNL1        0.0252
      8 C           5.5321   -0.1906    0.0000 C.3     1  UNL1        0.0464
      9 C           4.6660    0.3094    0.0000 C.3     1  UNL1        0.1170
     10 C           4.6660   -1.6906    0.0000 C.3     1  UNL1       -0.0068
     11 C           5.5321   -1.1906    0.0000 C.3     1  UNL1        0.1106
     12 C           2.9061   -1.7253    0.0000 C.3     1  UNL1        0.0617
     13 C           6.4783    0.1141    0.0000 C.3     1  UNL1        0.0632
     14 C           2.9061    0.3440    0.0000 C.2     1  UNL1       -0.0693
     15 C           3.8000   -2.1906    0.0000 C.3     1  UNL1       -0.0564
     16 C           2.0000   -1.2114    0.0000 C.3     1  UNL1       -0.0226
     17 C           2.0000   -0.1698    0.0000 C.3     1  UNL1       -0.0292
     18 C           7.0619   -0.6906    0.0000 C.2     1  UNL1        0.3107
     19 C           7.2226    0.7819    0.0000 C.3     1  UNL1       -0.0518
     20 C           2.9176    1.3440    0.0000 C.2     1  UNL1       -0.0990
     21 C           5.1660    2.1754    0.0000 C.2     1  UNL1        0.3042
     22 C           4.6660    3.0414    0.0000 C.3     1  UNL1        0.0332
     23 H           3.8066    0.6593    0.0000 H       1  UNL1        0.0388
     24 H           5.6220    0.6546    0.0000 H       1  UNL1        0.0381
     25 H           5.2030    0.6194    0.0000 H       1  UNL1        0.0744
     26 H           4.2675   -2.1656    0.0000 H       1  UNL1        0.0307
     27 H           5.0646   -2.1656    0.0000 H       1  UNL1        0.0307
     28 H           5.6220   -2.0359    0.0000 H       1  UNL1        0.0738
     29 H           2.3721   -2.0405    0.0000 H       1  UNL1        0.0599
     30 H           6.1694    0.6517    0.0000 H       1  UNL1        0.0416
     31 H           3.1800   -2.1906    0.0000 H       1  UNL1        0.0236
     32 H           3.8000   -2.8106    0.0000 H       1  UNL1        0.0236
     33 H           4.4200   -2.1906    0.0000 H       1  UNL1        0.0236
     34 H           1.3891   -1.1054    0.0000 H       1  UNL1        0.0293
     35 H           1.7909   -1.7951    0.0000 H       1  UNL1        0.0293
     36 H           1.7909    0.4139    0.0000 H       1  UNL1        0.0311
     37 H           1.3891   -0.2759    0.0000 H       1  UNL1        0.0311
     38 H           7.6366    0.3205    0.0000 H       1  UNL1        0.0238
     39 H           7.6840    1.1960    0.0000 H       1  UNL1        0.0238
     40 H           6.8085    1.2434    0.0000 H       1  UNL1        0.0238
     41 H           2.3843   -3.0414    0.0000 H       1  UNL1        0.2098
     42 H           3.4581    1.6477    0.0000 H       1  UNL1        0.0535
     43 H           2.3843    1.6602    0.0000 H       1  UNL1        0.0535
     44 H           5.2030    3.3514    0.0000 H       1  UNL1        0.0342
     45 H           4.3560    3.5784    0.0000 H       1  UNL1        0.0342
     46 H           4.1291    2.7314    0.0000 H       1  UNL1        0.0342
@<TRIPOS>BOND
     1     1    11    1
     2     1    18    1
     3     9     2    1
     4     2    21    1
     5    12     3    1
     6     3    41    1
     7     4    18    2
     8     5    21    2
     9     6     7    1
    10     6    10    1
    11     6    12    1
    12     6    15    1
    13     7     9    1
    14     7    14    1
    15     7    23    1
    16     8     9    1
    17     8    11    1
    18     8    13    1
    19     8    24    1
    20     9    25    1
    21    10    11    1
    22    10    26    1
    23    10    27    1
    24    11    28    1
    25    12    16    1
    26    12    29    1
    27    13    18    1
    28    13    19    1
    29    13    30    1
    30    14    17    1
    31    14    20    2
    32    15    31    1
    33    15    32    1
    34    15    33    1
    35    16    17    1
    36    16    34    1
    37    16    35    1
    38    17    36    1
    39    17    37    1
    40    19    38    1
    41    19    39    1
    42    19    40    1
    43    20    42    1
    44    20    43    1
    45    21    22    1
    46    22    44    1
    47    22    45    1
    48    22    46    1
