@<TRIPOS>MOLECULE
IMPHY000744
 51 53 0 0 0
SMALL
GASTEIGER

@<TRIPOS>ATOM
      1 O           5.1590   -1.7481    0.0000 O.3     1  UNL1       -0.3870
      2 O           7.6394   -0.3393    0.0000 O.3     1  UNL1       -0.3797
      3 O           2.0000    0.1200    0.0000 O.2     1  UNL1       -0.2967
      4 O           8.4147   -1.3609    0.0000 O.2     1  UNL1       -0.2893
      5 O           6.2080    2.7108    0.0000 O.3     1  UNL1       -0.3907
      6 C           4.9365   -0.7732    0.0000 C.3     1  UNL1        0.0854
      7 C           5.8374   -1.2070    0.0000 C.3     1  UNL1        0.0438
      8 C           4.7139    0.2018    0.0000 C.3     1  UNL1        0.0204
      9 C           4.1839   -1.4933    0.0000 C.3     1  UNL1       -0.0070
     10 C           6.7384   -0.7732    0.0000 C.3     1  UNL1        0.1403
     11 C           3.7234    0.5241    0.0000 C.3     1  UNL1        0.0469
     12 C           3.1862   -1.1940    0.0000 C.3     1  UNL1        0.0117
     13 C           6.9609    0.2018    0.0000 C.3     1  UNL1        0.0073
     14 C           5.3374    0.9836    0.0000 C.2     1  UNL1       -0.0757
     15 C           5.9734   -2.1918    0.0000 C.2     1  UNL1       -0.0687
     16 C           2.9544   -0.1785    0.0000 C.2     1  UNL1        0.1413
     17 C           7.4235   -1.4935    0.0000 C.2     1  UNL1        0.1909
     18 C           6.3374    0.9836    0.0000 C.2     1  UNL1       -0.0449
     19 C           3.9002   -2.4523    0.0000 C.3     1  UNL1       -0.0594
     20 C           6.9517   -2.3684    0.0000 C.2     1  UNL1       -0.0086
     21 C           3.5122    1.5015    0.0000 C.2     1  UNL1       -0.0689
     22 C           6.7713    1.8846    0.0000 C.3     1  UNL1        0.0654
     23 C           7.3856   -3.2694    0.0000 C.3     1  UNL1       -0.0366
     24 C           2.5601    1.8073    0.0000 C.3     1  UNL1       -0.0434
     25 C           4.2531    2.1732    0.0000 C.2     1  UNL1       -0.0990
     26 H           6.3838   -1.5001    0.0000 H       1  UNL1        0.0404
     27 H           4.4697    1.0159    0.0000 H       1  UNL1        0.0381
     28 H           4.7133   -1.8161    0.0000 H       1  UNL1        0.0330
     29 H           3.1328    0.7125    0.0000 H       1  UNL1        0.0429
     30 H           2.5671   -1.2265    0.0000 H       1  UNL1        0.0345
     31 H           3.1123   -1.8096    0.0000 H       1  UNL1        0.0345
     32 H           7.5195   -0.0672    0.0000 H       1  UNL1        0.0343
     33 H           7.3475    0.6865    0.0000 H       1  UNL1        0.0343
     34 H           5.0684    1.5422    0.0000 H       1  UNL1        0.0576
     35 H           5.5260   -2.6210    0.0000 H       1  UNL1        0.0580
     36 H           3.3057   -2.2764    0.0000 H       1  UNL1        0.0233
     37 H           3.7243   -3.0468    0.0000 H       1  UNL1        0.0233
     38 H           4.4948   -2.6281    0.0000 H       1  UNL1        0.0233
     39 H           4.9762   -2.3406    0.0000 H       1  UNL1        0.2102
     40 H           7.6857    0.2790    0.0000 H       1  UNL1        0.2108
     41 H           7.2747    1.5226    0.0000 H       1  UNL1        0.0604
     42 H           7.2152    2.3175    0.0000 H       1  UNL1        0.0604
     43 H           6.8270   -3.5384    0.0000 H       1  UNL1        0.0279
     44 H           7.6546   -3.8280    0.0000 H       1  UNL1        0.0279
     45 H           7.9442   -3.0004    0.0000 H       1  UNL1        0.0279
     46 H           2.7497    2.3976    0.0000 H       1  UNL1        0.0274
     47 H           1.9698    1.9969    0.0000 H       1  UNL1        0.0274
     48 H           2.3705    1.2170    0.0000 H       1  UNL1        0.0274
     49 H           4.8434    1.9836    0.0000 H       1  UNL1        0.0535
     50 H           4.1221    2.7792    0.0000 H       1  UNL1        0.0535
     51 H           6.4770    3.2694    0.0000 H       1  UNL1        0.2098
@<TRIPOS>BOND
     1     6     1    1
     2     1    39    1
     3    10     2    1
     4     2    40    1
     5     3    16    2
     6     4    17    2
     7     5    22    1
     8     5    51    1
     9     6     7    1
    10     6     8    1
    11     6     9    1
    12     7    10    1
    13     7    15    1
    14     7    26    1
    15     8    11    1
    16     8    14    1
    17     8    27    1
    18     9    12    1
    19     9    19    1
    20     9    28    1
    21    10    13    1
    22    10    17    1
    23    11    16    1
    24    11    21    1
    25    11    29    1
    26    12    16    1
    27    12    30    1
    28    12    31    1
    29    13    18    1
    30    13    32    1
    31    13    33    1
    32    14    18    2
    33    14    34    1
    34    15    20    2
    35    15    35    1
    36    17    20    1
    37    18    22    1
    38    19    36    1
    39    19    37    1
    40    19    38    1
    41    20    23    1
    42    21    24    1
    43    21    25    2
    44    22    41    1
    45    22    42    1
    46    23    43    1
    47    23    44    1
    48    23    45    1
    49    24    46    1
    50    24    47    1
    51    24    48    1
    52    25    49    1
    53    25    50    1
