@<TRIPOS>MOLECULE
IMPHY005297
 58 60 0 0 0
SMALL
GASTEIGER

@<TRIPOS>ATOM
      1 O           7.9497   -1.2500    0.0000 O.3     1  UNL1       -0.3405
      2 O           6.2177   -0.2500    0.0000 O.3     1  UNL1       -0.3460
      3 O           4.4381   -0.1567    0.0000 O.3     1  UNL1       -0.3457
      4 O           4.4769    2.4306    0.0000 O.3     1  UNL1       -0.3812
      5 O           6.2177   -3.2500    0.0000 O.3     1  UNL1       -0.3865
      6 O           9.6818   -1.2500    0.0000 O.3     1  UNL1       -0.3484
      7 O           5.9903    1.9136    0.0000 O.3     1  UNL1       -0.3837
      8 O           7.9497   -4.2500    0.0000 O.3     1  UNL1       -0.3864
      9 O           9.6818   -3.2500    0.0000 O.3     1  UNL1       -0.3841
     10 O           2.5369    1.4524    0.0000 O.3     1  UNL1       -0.3920
     11 O          10.5478    4.2500    0.0000 O.3     1  UNL1       -0.5068
     12 C           4.2690    1.4524    0.0000 C.3     1  UNL1        0.1425
     13 C           7.0837   -1.7500    0.0000 C.3     1  UNL1        0.1134
     14 C           7.0837   -2.7500    0.0000 C.3     1  UNL1        0.1119
     15 C           5.2471    1.2445    0.0000 C.3     1  UNL1        0.1387
     16 C           7.9497   -3.2500    0.0000 C.3     1  UNL1        0.1141
     17 C           5.3517    0.2500    0.0000 C.3     1  UNL1        0.1880
     18 C           8.8158   -2.7500    0.0000 C.3     1  UNL1        0.1341
     19 C           8.8158   -1.7500    0.0000 C.3     1  UNL1        0.1879
     20 C           6.2177   -1.2500    0.0000 C.3     1  UNL1        0.0796
     21 C           3.7690    0.5864    0.0000 C.3     1  UNL1        0.0843
     22 C           3.4030    1.9524    0.0000 C.3     1  UNL1        0.0778
     23 C           9.6818   -0.2500    0.0000 C.3     1  UNL1        0.0547
     24 C          10.5478    0.2500    0.0000 C.3     1  UNL1       -0.0040
     25 C          10.5478    1.2500    0.0000 C.ar    1  UNL1       -0.0450
     26 C          11.4138    1.7500    0.0000 C.ar    1  UNL1       -0.0551
     27 C           9.6818    1.7500    0.0000 C.ar    1  UNL1       -0.0551
     28 C          11.4138    2.7500    0.0000 C.ar    1  UNL1       -0.0199
     29 C           9.6818    2.7500    0.0000 C.ar    1  UNL1       -0.0199
     30 C          10.5478    3.2500    0.0000 C.ar    1  UNL1        0.1169
     31 H           7.0837   -1.1300    0.0000 H       1  UNL1        0.0647
     32 H           7.0837   -3.3700    0.0000 H       1  UNL1        0.0647
     33 H           5.0867    1.8434    0.0000 H       1  UNL1        0.0675
     34 H           8.4867   -3.5600    0.0000 H       1  UNL1        0.0648
     35 H           5.3192   -0.3692    0.0000 H       1  UNL1        0.0937
     36 H           9.3527   -2.4400    0.0000 H       1  UNL1        0.0671
     37 H           8.8158   -1.1300    0.0000 H       1  UNL1        0.0937
     38 H           5.6071   -1.1423    0.0000 H       1  UNL1        0.0587
     39 H           6.0056   -1.8326    0.0000 H       1  UNL1        0.0587
     40 H           3.2674    0.9508    0.0000 H       1  UNL1        0.0591
     41 H           3.3541    0.1257    0.0000 H       1  UNL1        0.0591
     42 H           3.8015    2.4274    0.0000 H       1  UNL1        0.0587
     43 H           3.0044    2.4274    0.0000 H       1  UNL1        0.0587
     44 H           4.0162    2.8454    0.0000 H       1  UNL1        0.2105
     45 H           5.6808   -2.9400    0.0000 H       1  UNL1        0.2100
     46 H           6.5799    1.7221    0.0000 H       1  UNL1        0.2101
     47 H           7.4128   -4.5600    0.0000 H       1  UNL1        0.2100
     48 H          10.2187   -2.9400    0.0000 H       1  UNL1        0.2101
     49 H           9.4697    0.3326    0.0000 H       1  UNL1        0.0564
     50 H           9.0712   -0.3577    0.0000 H       1  UNL1        0.0564
     51 H           2.0000    1.7624    0.0000 H       1  UNL1        0.2095
     52 H          10.7599   -0.3326    0.0000 H       1  UNL1        0.0335
     53 H          11.1584    0.3577    0.0000 H       1  UNL1        0.0335
     54 H          11.9508    1.4400    0.0000 H       1  UNL1        0.0621
     55 H           9.1448    1.4400    0.0000 H       1  UNL1        0.0621
     56 H          11.9508    3.0600    0.0000 H       1  UNL1        0.0654
     57 H           9.1448    3.0600    0.0000 H       1  UNL1        0.0654
     58 H          11.0848    4.5600    0.0000 H       1  UNL1        0.2921
@<TRIPOS>BOND
     1     1    13    1
     2     1    19    1
     3    17     2    1
     4     2    20    1
     5     3    17    1
     6     3    21    1
     7    12     4    1
     8     4    44    1
     9    14     5    1
    10     5    45    1
    11    19     6    1
    12     6    23    1
    13    15     7    1
    14     7    46    1
    15    16     8    1
    16     8    47    1
    17    18     9    1
    18     9    48    1
    19    10    22    1
    20    10    51    1
    21    11    30    1
    22    11    58    1
    23    12    15    1
    24    12    21    1
    25    12    22    1
    26    13    14    1
    27    13    20    1
    28    13    31    1
    29    14    16    1
    30    14    32    1
    31    15    17    1
    32    15    33    1
    33    16    18    1
    34    16    34    1
    35    17    35    1
    36    18    19    1
    37    18    36    1
    38    19    37    1
    39    20    38    1
    40    20    39    1
    41    21    40    1
    42    21    41    1
    43    22    42    1
    44    22    43    1
    45    23    24    1
    46    23    49    1
    47    23    50    1
    48    24    25    1
    49    24    52    1
    50    24    53    1
    51    25    26   ar
    52    25    27   ar
    53    26    28   ar
    54    26    54    1
    55    27    29   ar
    56    27    55    1
    57    28    30   ar
    58    28    56    1
    59    29    30   ar
    60    29    57    1
