@<TRIPOS>MOLECULE
IMPHY002558
 40 42 0 0 0
SMALL
GASTEIGER

@<TRIPOS>ATOM
      1 S           4.5035    2.3392    0.0000 S.3     1  UNL1       -0.1488
      2 C           3.2666    0.7384    0.0000 C.3     1  UNL1       -0.0158
      3 C           3.6086   -0.2013    0.0000 C.3     1  UNL1       -0.0160
      4 C           2.8237   -0.8113    0.0000 C.3     1  UNL1       -0.0340
      5 C           5.2401    1.3566    0.0000 C.3     1  UNL1        0.0118
      6 C           4.9813    0.3907    0.0000 C.3     1  UNL1        0.0298
      7 C           2.2732    0.7011    0.0000 C.3     1  UNL1       -0.0460
      8 C           2.0000   -0.2547    0.0000 C.3     1  UNL1       -0.0491
      9 C           6.6718    1.1589    0.0000 C.3     1  UNL1       -0.0369
     10 C           2.9245    1.6780    0.0000 C.3     1  UNL1       -0.0583
     11 C           2.8568   -1.8108    0.0000 C.3     1  UNL1       -0.0436
     12 C           6.2530   -0.4040    0.0000 C.2     1  UNL1       -0.0634
     13 C           7.0301    0.2254    0.0000 C.3     1  UNL1       -0.0299
     14 C           2.0078   -2.3392    0.0000 C.3     1  UNL1       -0.0624
     15 C           3.7390   -2.2818    0.0000 C.3     1  UNL1       -0.0624
     16 C           6.3053   -1.4026    0.0000 C.2     1  UNL1       -0.0984
     17 H           3.9241   -0.7351    0.0000 H       1  UNL1        0.0323
     18 H           2.2810   -1.1112    0.0000 H       1  UNL1        0.0307
     19 H           5.5548    1.8908    0.0000 H       1  UNL1        0.0418
     20 H           5.4836    0.7541    0.0000 H       1  UNL1        0.0461
     21 H           2.3152    1.3197    0.0000 H       1  UNL1        0.0271
     22 H           1.6624    0.8079    0.0000 H       1  UNL1        0.0271
     23 H           1.4251   -0.0226    0.0000 H       1  UNL1        0.0268
     24 H           1.7088   -0.8021    0.0000 H       1  UNL1        0.0268
     25 H           7.2796    1.2813    0.0000 H       1  UNL1        0.0279
     26 H           6.6527    1.7786    0.0000 H       1  UNL1        0.0279
     27 H           3.5072    1.8901    0.0000 H       1  UNL1        0.0235
     28 H           2.7125    2.2607    0.0000 H       1  UNL1        0.0235
     29 H           2.3419    1.4660    0.0000 H       1  UNL1        0.0235
     30 H           3.3832   -1.4831    0.0000 H       1  UNL1        0.0298
     31 H           7.3678   -0.2946    0.0000 H       1  UNL1        0.0311
     32 H           7.5825    0.5068    0.0000 H       1  UNL1        0.0311
     33 H           1.6802   -1.8129    0.0000 H       1  UNL1        0.0232
     34 H           1.4815   -2.6669    0.0000 H       1  UNL1        0.0232
     35 H           2.3355   -2.8656    0.0000 H       1  UNL1        0.0232
     36 H           3.4469   -2.8287    0.0000 H       1  UNL1        0.0232
     37 H           4.2859   -2.5738    0.0000 H       1  UNL1        0.0232
     38 H           4.0310   -1.7348    0.0000 H       1  UNL1        0.0232
     39 H           5.7853   -1.7403    0.0000 H       1  UNL1        0.0535
     40 H           6.8577   -1.6841    0.0000 H       1  UNL1        0.0535
@<TRIPOS>BOND
     1     1     5    1
     2     1     6    1
     3     2     3    1
     4     2     5    1
     5     2     7    1
     6     2    10    1
     7     3     4    1
     8     3     6    1
     9     3    17    1
    10     4     8    1
    11     4    11    1
    12     4    18    1
    13     5     9    1
    14     5    19    1
    15     6    12    1
    16     6    20    1
    17     7     8    1
    18     7    21    1
    19     7    22    1
    20     8    23    1
    21     8    24    1
    22     9    13    1
    23     9    25    1
    24     9    26    1
    25    10    27    1
    26    10    28    1
    27    10    29    1
    28    11    14    1
    29    11    15    1
    30    11    30    1
    31    12    13    1
    32    12    16    2
    33    13    31    1
    34    13    32    1
    35    14    33    1
    36    14    34    1
    37    14    35    1
    38    15    36    1
    39    15    37    1
    40    15    38    1
    41    16    39    1
    42    16    40    1
