@<TRIPOS>MOLECULE
IMPHY008815
 86 90 0 0 0
SMALL
GASTEIGER

@<TRIPOS>ATOM
      1 O           3.7320   -2.5933    0.0000 O.3     1  UNL1       -0.4610
      2 O           2.8718   -1.0900    0.0000 O.2     1  UNL1       -0.2512
      3 C           8.2591   -1.0410    0.0000 C.3     1  UNL1       -0.0196
      4 C           7.3931   -0.5410    0.0000 C.3     1  UNL1       -0.0289
      5 C           6.4831   -1.0478    0.0000 C.3     1  UNL1       -0.0252
      6 C           9.1251   -0.5410    0.0000 C.3     1  UNL1       -0.0051
      7 C           6.4750   -2.0894    0.0000 C.3     1  UNL1       -0.0268
      8 C           8.2752   -2.0825    0.0000 C.3     1  UNL1       -0.0463
      9 C           7.3771   -2.6102    0.0000 C.3     1  UNL1       -0.0486
     10 C           5.5396   -2.6391    0.0000 C.3     1  UNL1        0.0055
     11 C           7.3931    0.4590    0.0000 C.3     1  UNL1       -0.0455
     12 C           9.1251    0.4590    0.0000 C.2     1  UNL1       -0.0633
     13 C           5.5562   -0.4837    0.0000 C.3     1  UNL1       -0.0437
     14 C          10.0191   -1.0756    0.0000 C.3     1  UNL1       -0.0426
     15 C           8.2591    0.9590    0.0000 C.3     1  UNL1       -0.0307
     16 C           8.9019   -1.8070    0.0000 C.3     1  UNL1       -0.0585
     17 C          10.9251    0.4799    0.0000 C.3     1  UNL1       -0.0107
     18 C           4.6000   -2.0966    0.0000 C.3     1  UNL1        0.1084
     19 C          10.0191    0.9937    0.0000 C.2     1  UNL1       -0.0633
     20 C           6.4908   -0.0478    0.0000 C.3     1  UNL1       -0.0590
     21 C           4.6084   -1.0117    0.0000 C.3     1  UNL1       -0.0146
     22 C          10.9251   -0.5618    0.0000 C.3     1  UNL1       -0.0431
     23 C           9.4672   -1.4806    0.0000 C.3     1  UNL1       -0.0553
     24 C           9.9940    2.0784    0.0000 C.3     1  UNL1       -0.0258
     25 C           5.0430   -3.5071    0.0000 C.3     1  UNL1       -0.0562
     26 C           6.0430   -3.5032    0.0000 C.3     1  UNL1       -0.0562
     27 C          11.8689    1.0151    0.0000 C.3     1  UNL1       -0.0434
     28 C          10.9251    2.6353    0.0000 C.3     1  UNL1       -0.0312
     29 C          11.8689    2.1001    0.0000 C.3     1  UNL1       -0.0468
     30 C          11.7950   -0.0135    0.0000 C.3     1  UNL1       -0.0558
     31 C          11.4151    3.5071    0.0000 C.3     1  UNL1       -0.0595
     32 C          10.4152    3.4955    0.0000 C.3     1  UNL1       -0.0595
     33 C           2.8680   -2.0900    0.0000 C.2     1  UNL1        0.3042
     34 C           2.0000   -2.5866    0.0000 C.3     1  UNL1        0.0332
     35 H           8.1292   -0.1160    0.0000 H       1  UNL1        0.0312
     36 H           6.4783   -2.9394    0.0000 H       1  UNL1        0.0312
     37 H           8.4932   -2.6629    0.0000 H       1  UNL1        0.0271
     38 H           8.8843   -1.9670    0.0000 H       1  UNL1        0.0271
     39 H           6.9798   -3.0862    0.0000 H       1  UNL1        0.0268
     40 H           7.7781   -3.0831    0.0000 H       1  UNL1        0.0268
     41 H           7.1810    1.0416    0.0000 H       1  UNL1        0.0271
     42 H           6.7825    0.3514    0.0000 H       1  UNL1        0.0271
     43 H           5.9644   -0.0171    0.0000 H       1  UNL1        0.0272
     44 H           5.1663   -0.0017    0.0000 H       1  UNL1        0.0272
     45 H           9.6145   -1.5454    0.0000 H       1  UNL1        0.0274
     46 H          10.4127   -1.5546    0.0000 H       1  UNL1        0.0274
     47 H           8.6576    1.4340    0.0000 H       1  UNL1        0.0310
     48 H           7.8606    1.4340    0.0000 H       1  UNL1        0.0310
     49 H           8.4269   -2.2055    0.0000 H       1  UNL1        0.0235
     50 H           9.3004   -2.2820    0.0000 H       1  UNL1        0.0235
     51 H           9.3768   -1.4085    0.0000 H       1  UNL1        0.0235
     52 H           4.5988   -2.7166    0.0000 H       1  UNL1        0.0739
     53 H           7.1108   -0.0526    0.0000 H       1  UNL1        0.0235
     54 H           6.4956    0.5721    0.0000 H       1  UNL1        0.0235
     55 H           5.8708   -0.0431    0.0000 H       1  UNL1        0.0235
     56 H           4.4038   -0.4264    0.0000 H       1  UNL1        0.0301
     57 H           3.9967   -1.1131    0.0000 H       1  UNL1        0.0301
     58 H          11.1342   -1.1455    0.0000 H       1  UNL1        0.0274
     59 H          11.5360   -0.4557    0.0000 H       1  UNL1        0.0274
     60 H           8.8846   -1.6927    0.0000 H       1  UNL1        0.0238
     61 H           9.6794   -2.0632    0.0000 H       1  UNL1        0.0238
     62 H          10.0498   -1.2685    0.0000 H       1  UNL1        0.0238
     63 H           9.7715    2.6571    0.0000 H       1  UNL1        0.0315
     64 H           9.3857    1.9582    0.0000 H       1  UNL1        0.0315
     65 H           4.5048   -3.1992    0.0000 H       1  UNL1        0.0236
     66 H           4.7350   -4.0452    0.0000 H       1  UNL1        0.0236
     67 H           5.5811   -3.8150    0.0000 H       1  UNL1        0.0236
     68 H           5.5072   -3.8153    0.0000 H       1  UNL1        0.0236
     69 H           6.3550   -4.0390    0.0000 H       1  UNL1        0.0236
     70 H           6.5787   -3.1912    0.0000 H       1  UNL1        0.0236
     71 H          12.0780    0.4314    0.0000 H       1  UNL1        0.0274
     72 H          12.4798    1.1212    0.0000 H       1  UNL1        0.0274
     73 H          12.4798    1.9940    0.0000 H       1  UNL1        0.0271
     74 H          12.0780    2.6838    0.0000 H       1  UNL1        0.0271
     75 H          11.4891   -0.5528    0.0000 H       1  UNL1        0.0238
     76 H          12.3343   -0.3193    0.0000 H       1  UNL1        0.0238
     77 H          12.1008    0.5259    0.0000 H       1  UNL1        0.0238
     78 H          11.9556    3.2033    0.0000 H       1  UNL1        0.0235
     79 H          11.7189    4.0476    0.0000 H       1  UNL1        0.0235
     80 H          10.8746    3.8108    0.0000 H       1  UNL1        0.0235
     81 H          10.9485    3.8117    0.0000 H       1  UNL1        0.0235
     82 H          10.0990    4.0288    0.0000 H       1  UNL1        0.0235
     83 H           9.8818    3.1793    0.0000 H       1  UNL1        0.0235
     84 H           1.6921   -2.0485    0.0000 H       1  UNL1        0.0342
     85 H           1.4619   -2.8945    0.0000 H       1  UNL1        0.0342
     86 H           2.3079   -3.1247    0.0000 H       1  UNL1        0.0342
@<TRIPOS>BOND
     1    18     1    1
     2     1    33    1
     3     2    33    2
     4     3     4    1
     5     3     6    1
     6     3     8    1
     7     3    16    1
     8     4     5    1
     9     4    11    1
    10     4    35    1
    11     5     7    1
    12     5    13    1
    13     5    20    1
    14     6    12    1
    15     6    14    1
    16     6    23    1
    17     7     9    1
    18     7    10    1
    19     7    36    1
    20     8     9    1
    21     8    37    1
    22     8    38    1
    23     9    39    1
    24     9    40    1
    25    10    18    1
    26    10    25    1
    27    10    26    1
    28    11    15    1
    29    11    41    1
    30    11    42    1
    31    12    15    1
    32    12    19    2
    33    13    21    1
    34    13    43    1
    35    13    44    1
    36    14    22    1
    37    14    45    1
    38    14    46    1
    39    15    47    1
    40    15    48    1
    41    16    49    1
    42    16    50    1
    43    16    51    1
    44    17    19    1
    45    17    22    1
    46    17    27    1
    47    17    30    1
    48    18    21    1
    49    18    52    1
    50    19    24    1
    51    20    53    1
    52    20    54    1
    53    20    55    1
    54    21    56    1
    55    21    57    1
    56    22    58    1
    57    22    59    1
    58    23    60    1
    59    23    61    1
    60    23    62    1
    61    24    28    1
    62    24    63    1
    63    24    64    1
    64    25    65    1
    65    25    66    1
    66    25    67    1
    67    26    68    1
    68    26    69    1
    69    26    70    1
    70    27    29    1
    71    27    71    1
    72    27    72    1
    73    28    29    1
    74    28    31    1
    75    28    32    1
    76    29    73    1
    77    29    74    1
    78    30    75    1
    79    30    76    1
    80    30    77    1
    81    31    78    1
    82    31    79    1
    83    31    80    1
    84    32    81    1
    85    32    82    1
    86    32    83    1
    87    33    34    1
    88    34    84    1
    89    34    85    1
    90    34    86    1
