@<TRIPOS>MOLECULE
IMPHY013051
 21 20 0 0 0
SMALL
GASTEIGER

@<TRIPOS>ATOM
      1 O           3.7690    0.3940    0.0000 O.3     1  UNL1       -0.3839
      2 O           5.1350    1.0280    0.0000 O.3     1  UNL1       -0.3866
      3 O           2.5369   -0.4720    0.0000 O.3     1  UNL1       -0.3921
      4 O           6.8671    0.0280    0.0000 O.3     1  UNL1       -0.3924
      5 C           4.2690   -0.4720    0.0000 C.3     1  UNL1        0.1140
      6 C           5.1350    0.0280    0.0000 C.3     1  UNL1        0.1087
      7 C           3.4030   -0.9720    0.0000 C.3     1  UNL1        0.0752
      8 C           4.7690   -1.3380    0.0000 C.3     1  UNL1       -0.0314
      9 C           6.0010   -0.4720    0.0000 C.3     1  UNL1        0.0729
     10 H           5.6720    0.3380    0.0000 H       1  UNL1        0.0646
     11 H           3.0044   -1.4469    0.0000 H       1  UNL1        0.0586
     12 H           3.8015   -1.4469    0.0000 H       1  UNL1        0.0586
     13 H           4.2320   -1.6480    0.0000 H       1  UNL1        0.0259
     14 H           5.0790   -1.8750    0.0000 H       1  UNL1        0.0259
     15 H           5.3059   -1.0280    0.0000 H       1  UNL1        0.0259
     16 H           5.6025   -0.9469    0.0000 H       1  UNL1        0.0584
     17 H           6.3996   -0.9469    0.0000 H       1  UNL1        0.0584
     18 H           3.1490    0.3940    0.0000 H       1  UNL1        0.2104
     19 H           5.6720    1.3380    0.0000 H       1  UNL1        0.2100
     20 H           2.0000   -0.7820    0.0000 H       1  UNL1        0.2095
     21 H           7.4040   -0.2820    0.0000 H       1  UNL1        0.2095
@<TRIPOS>BOND
     1     5     1    1
     2     1    18    1
     3     6     2    1
     4     2    19    1
     5     3     7    1
     6     3    20    1
     7     4     9    1
     8     4    21    1
     9     5     6    1
    10     5     7    1
    11     5     8    1
    12     6     9    1
    13     6    10    1
    14     7    11    1
    15     7    12    1
    16     8    13    1
    17     8    14    1
    18     8    15    1
    19     9    16    1
    20     9    17    1
