@<TRIPOS>MOLECULE
IMPHY014555
 82 87 0 0 0
SMALL
GASTEIGER

@<TRIPOS>ATOM
      1 S           6.5376   -3.4038    0.0000 S.3     1  UNL1       -0.1494
      2 O           5.6392   -1.0045    0.0000 O.3     1  UNL1       -0.3877
      3 O           3.1286    1.2576    0.0000 O.3     1  UNL1       -0.3850
      4 O           5.6270   -4.0393    0.0000 O.3     1  UNL1       -0.3836
      5 O           5.0051    2.1311    0.0000 O.3     1  UNL1       -0.3823
      6 O           5.2914   -5.2264    0.0000 O.3     1  UNL1       -0.3405
      7 O           3.0048    3.4468    0.0000 O.3     1  UNL1       -0.4548
      8 O           2.1616   -2.8679    0.0000 O.2     1  UNL1       -0.2920
      9 O           6.7693   -6.0178    0.0000 O.3     1  UNL1       -0.3662
     10 O           2.0000    4.8576    0.0000 O.2     1  UNL1       -0.2453
     11 C           3.8790    0.0299    0.0000 C.3     1  UNL1        0.0285
     12 C           4.7771   -0.4978    0.0000 C.3     1  UNL1        0.0773
     13 C           4.7610   -1.5393    0.0000 C.3     1  UNL1       -0.0066
     14 C           3.8950   -2.0393    0.0000 C.3     1  UNL1       -0.0203
     15 C           4.1047    1.0405    0.0000 C.3     1  UNL1        0.1058
     16 C           3.8950   -3.0393    0.0000 C.3     1  UNL1        0.0657
     17 C           2.9770   -0.4909    0.0000 C.3     1  UNL1       -0.0420
     18 C           5.5501    0.1911    0.0000 C.3     1  UNL1       -0.0204
     19 C           2.9850   -1.5325    0.0000 C.3     1  UNL1       -0.0482
     20 C           4.7610   -3.5393    0.0000 C.3     1  UNL1        0.1199
     21 C           5.1354    1.1399    0.0000 C.3     1  UNL1       -0.0179
     22 C           5.6270   -2.0393    0.0000 C.3     1  UNL1       -0.0326
     23 C           5.6270   -3.0393    0.0000 C.3     1  UNL1        0.0382
     24 C           4.0096    2.0360    0.0000 C.3     1  UNL1        0.1293
     25 C           2.8956    0.2112    0.0000 C.3     1  UNL1       -0.0542
     26 C           4.6214   -4.5101    0.0000 C.3     1  UNL1        0.1108
     27 C           3.0290   -2.5393    0.0000 C.3     1  UNL1       -0.0494
     28 C           2.9777   -3.4458    0.0000 C.2     1  UNL1        0.1648
     29 C           3.9145    3.0314    0.0000 C.3     1  UNL1        0.1380
     30 C           3.0141    1.9408    0.0000 C.3     1  UNL1       -0.0298
     31 C           3.7410   -4.9914    0.0000 C.2     1  UNL1       -0.0494
     32 C           2.8988   -4.4461    0.0000 C.2     1  UNL1       -0.0200
     33 C           6.8229   -4.3422    0.0000 C.3     1  UNL1        0.0450
     34 C           4.7290    3.6116    0.0000 C.3     1  UNL1        0.0089
     35 C           6.2693   -5.1518    0.0000 C.3     1  UNL1        0.1660
     36 C           4.6339    4.6070    0.0000 C.2     1  UNL1       -0.0594
     37 C           2.9097    4.4422    0.0000 C.2     1  UNL1        0.3352
     38 C           3.7242    5.0224    0.0000 C.2     1  UNL1        0.0326
     39 C           5.4484    5.1871    0.0000 C.3     1  UNL1       -0.0429
     40 C           3.6291    6.0178    0.0000 C.3     1  UNL1       -0.0330
     41 H           5.5004   -1.1200    0.0000 H       1  UNL1        0.0332
     42 H           4.6311   -2.4643    0.0000 H       1  UNL1        0.0315
     43 H           2.7634    0.0912    0.0000 H       1  UNL1        0.0272
     44 H           2.3669   -0.6017    0.0000 H       1  UNL1        0.0272
     45 H           5.9117   -0.3126    0.0000 H       1  UNL1        0.0294
     46 H           6.0890    0.4977    0.0000 H       1  UNL1        0.0294
     47 H           2.3733   -1.4311    0.0000 H       1  UNL1        0.0269
     48 H           2.7804   -2.1178    0.0000 H       1  UNL1        0.0269
     49 H           5.7265    1.3271    0.0000 H       1  UNL1        0.0295
     50 H           5.0114    1.7474    0.0000 H       1  UNL1        0.0295
     51 H           6.2376   -2.1470    0.0000 H       1  UNL1        0.0280
     52 H           5.8391   -1.4567    0.0000 H       1  UNL1        0.0280
     53 H           6.3309   -2.5629    0.0000 H       1  UNL1        0.0442
     54 H           3.0080    0.8209    0.0000 H       1  UNL1        0.0237
     55 H           2.2859    0.3235    0.0000 H       1  UNL1        0.0237
     56 H           2.7832   -0.3986    0.0000 H       1  UNL1        0.0237
     57 H           4.4866   -5.3494    0.0000 H       1  UNL1        0.0671
     58 H           6.1785   -0.6986    0.0000 H       1  UNL1        0.2102
     59 H           3.3390   -2.0024    0.0000 H       1  UNL1        0.0240
     60 H           2.4920   -2.2293    0.0000 H       1  UNL1        0.0240
     61 H           2.7190   -3.0763    0.0000 H       1  UNL1        0.0240
     62 H           2.5784    0.9717    0.0000 H       1  UNL1        0.2103
     63 H           3.2221    2.5383    0.0000 H       1  UNL1        0.0767
     64 H           2.9552    2.5580    0.0000 H       1  UNL1        0.0259
     65 H           2.3970    1.8818    0.0000 H       1  UNL1        0.0259
     66 H           3.0731    1.3236    0.0000 H       1  UNL1        0.0259
     67 H           5.6270   -4.6593    0.0000 H       1  UNL1        0.2104
     68 H           3.7180   -5.6110    0.0000 H       1  UNL1        0.0600
     69 H           2.3429   -4.7206    0.0000 H       1  UNL1        0.0650
     70 H           5.2626    2.6951    0.0000 H       1  UNL1        0.2104
     71 H           7.2436   -4.7976    0.0000 H       1  UNL1        0.0426
     72 H           7.3608   -4.0338    0.0000 H       1  UNL1        0.0426
     73 H           4.9955    3.0518    0.0000 H       1  UNL1        0.0347
     74 H           5.3266    3.7768    0.0000 H       1  UNL1        0.0347
     75 H           6.8889   -5.1754    0.0000 H       1  UNL1        0.0916
     76 H           7.3893   -6.0178    0.0000 H       1  UNL1        0.2125
     77 H           5.8081    4.6821    0.0000 H       1  UNL1        0.0275
     78 H           5.9534    5.5468    0.0000 H       1  UNL1        0.0275
     79 H           5.0887    5.6921    0.0000 H       1  UNL1        0.0275
     80 H           4.2462    6.0768    0.0000 H       1  UNL1        0.0280
     81 H           3.5701    6.6350    0.0000 H       1  UNL1        0.0280
     82 H           3.0119    5.9588    0.0000 H       1  UNL1        0.0280
@<TRIPOS>BOND
     1     1    23    1
     2     1    33    1
     3    12     2    1
     4     2    58    1
     5    15     3    1
     6     3    62    1
     7     4    20    1
     8     4    67    1
     9    24     5    1
    10     5    70    1
    11     6    26    1
    12     6    35    1
    13     7    29    1
    14     7    37    1
    15     8    28    2
    16     9    35    1
    17     9    76    1
    18    10    37    2
    19    11    12    1
    20    11    15    1
    21    11    17    1
    22    11    25    1
    23    12    13    1
    24    12    18    1
    25    13    14    1
    26    13    22    1
    27    13    41    1
    28    14    16    1
    29    14    19    1
    30    14    42    1
    31    15    21    1
    32    15    24    1
    33    16    20    1
    34    16    27    1
    35    16    28    1
    36    17    19    1
    37    17    43    1
    38    17    44    1
    39    18    21    1
    40    18    45    1
    41    18    46    1
    42    19    47    1
    43    19    48    1
    44    20    23    1
    45    20    26    1
    46    21    49    1
    47    21    50    1
    48    22    23    1
    49    22    51    1
    50    22    52    1
    51    23    53    1
    52    24    29    1
    53    24    30    1
    54    25    54    1
    55    25    55    1
    56    25    56    1
    57    26    31    1
    58    26    57    1
    59    27    59    1
    60    27    60    1
    61    27    61    1
    62    28    32    1
    63    29    34    1
    64    29    63    1
    65    30    64    1
    66    30    65    1
    67    30    66    1
    68    31    32    2
    69    31    68    1
    70    32    69    1
    71    33    35    1
    72    33    71    1
    73    33    72    1
    74    34    36    1
    75    34    73    1
    76    34    74    1
    77    35    75    1
    78    36    38    2
    79    36    39    1
    80    37    38    1
    81    38    40    1
    82    39    77    1
    83    39    78    1
    84    39    79    1
    85    40    80    1
    86    40    81    1
    87    40    82    1
