@<TRIPOS>MOLECULE
IMPHY012370
 41 46 0 0 0
SMALL
GASTEIGER

@<TRIPOS>ATOM
      1 O           6.2352   -1.8284    0.0000 O.3     1  UNL1       -0.3646
      2 O           8.9116   -1.2899    0.0000 O.3     1  UNL1       -0.3771
      3 O           2.6079    0.4170    0.0000 O.3     1  UNL1       -0.4526
      4 O           2.6079    2.0934    0.0000 O.3     1  UNL1       -0.4526
      5 N           7.1256    1.7552    0.0000 N.3     1  UNL1       -0.2942
      6 C           6.2596    0.2552    0.0000 C.3     1  UNL1        0.0416
      7 C           6.2435   -0.7863    0.0000 C.3     1  UNL1        0.0988
      8 C           7.1256    0.7552    0.0000 C.3     1  UNL1        0.0253
      9 C           7.1415   -1.3140    0.0000 C.3     1  UNL1        0.1122
     10 C           6.1461    0.8588    0.0000 C.3     1  UNL1       -0.0266
     11 C           8.0356    0.2484    0.0000 C.3     1  UNL1       -0.0075
     12 C           8.0436   -0.7932    0.0000 C.3     1  UNL1        0.0883
     13 C           5.3935    0.7552    0.0000 C.ar    1  UNL1       -0.0290
     14 C           6.5462    1.5516    0.0000 C.3     1  UNL1        0.0005
     15 C           6.2596    2.2552    0.0000 C.3     1  UNL1        0.0247
     16 C           5.3935    1.7552    0.0000 C.ar    1  UNL1       -0.0258
     17 C           4.4996    0.2206    0.0000 C.ar    1  UNL1       -0.0120
     18 C           4.4996    2.2899    0.0000 C.ar    1  UNL1       -0.0115
     19 C           3.5935    0.7344    0.0000 C.ar    1  UNL1        0.1665
     20 C           3.5935    1.7760    0.0000 C.ar    1  UNL1        0.1665
     21 C           8.9154   -2.2899    0.0000 C.3     1  UNL1        0.0369
     22 C           2.0000    1.2552    0.0000 C.3     1  UNL1        0.2332
     23 H           5.6235   -0.7790    0.0000 H       1  UNL1        0.0632
     24 H           7.8617    1.1802    0.0000 H       1  UNL1        0.0473
     25 H           7.4495   -1.8521    0.0000 H       1  UNL1        0.0648
     26 H           5.7190    1.3082    0.0000 H       1  UNL1        0.0287
     27 H           5.5942    0.5764    0.0000 H       1  UNL1        0.0287
     28 H           8.6472    0.1470    0.0000 H       1  UNL1        0.0306
     29 H           8.2401    0.8337    0.0000 H       1  UNL1        0.0306
     30 H           8.0448   -1.4132    0.0000 H       1  UNL1        0.0623
     31 H           6.5147    2.1708    0.0000 H       1  UNL1        0.0427
     32 H           5.9434    1.6969    0.0000 H       1  UNL1        0.0427
     33 H           6.6581    2.7302    0.0000 H       1  UNL1        0.0476
     34 H           5.8610    2.7302    0.0000 H       1  UNL1        0.0476
     35 H           4.5068   -0.3994    0.0000 H       1  UNL1        0.0658
     36 H           4.5068    2.9098    0.0000 H       1  UNL1        0.0658
     37 H           8.2954   -2.2923    0.0000 H       1  UNL1        0.0524
     38 H           8.9178   -2.9099    0.0000 H       1  UNL1        0.0524
     39 H           9.5354   -2.2875    0.0000 H       1  UNL1        0.0524
     40 H           1.5391    1.6700    0.0000 H       1  UNL1        0.1166
     41 H           1.5391    0.8405    0.0000 H       1  UNL1        0.1166
@<TRIPOS>BOND
     1     7     1    1
     2     9     1    1
     3    12     2    1
     4     2    21    1
     5     3    19    1
     6     3    22    1
     7     4    20    1
     8     4    22    1
     9     5     8    1
    10     5    14    1
    11     5    15    1
    12     6     7    1
    13     6     8    1
    14     6    10    1
    15     6    13    1
    16     7     9    1
    17     7    23    1
    18     8    11    1
    19     8    24    1
    20     9    12    1
    21     9    25    1
    22    10    14    1
    23    10    26    1
    24    10    27    1
    25    11    12    1
    26    11    28    1
    27    11    29    1
    28    12    30    1
    29    13    16   ar
    30    13    17   ar
    31    14    31    1
    32    14    32    1
    33    15    16    1
    34    15    33    1
    35    15    34    1
    36    16    18   ar
    37    17    19   ar
    38    17    35    1
    39    18    20   ar
    40    18    36    1
    41    19    20   ar
    42    21    37    1
    43    21    38    1
    44    21    39    1
    45    22    40    1
    46    22    41    1
