@<TRIPOS>MOLECULE
IMPHY000571
 23 24 0 0 0
SMALL
GASTEIGER

@<TRIPOS>ATOM
      1 C           3.7147   -0.2868    0.0000 C.3     1  UNL1       -0.0193
      2 C           3.9735    0.6791    0.0000 C.3     1  UNL1       -0.0193
      3 C           3.2369    1.6617    0.0000 C.3     1  UNL1       -0.0400
      4 C           2.3420   -0.8789    0.0000 C.3     1  UNL1       -0.0460
      5 C           2.0000    0.0608    0.0000 C.3     1  UNL1       -0.0460
      6 C           5.1137   -0.7957    0.0000 C.2     1  UNL1       -0.0703
      7 C           5.3725    0.1703    0.0000 C.2     1  UNL1       -0.0703
      8 C           5.6137   -1.6617    0.0000 C.3     1  UNL1       -0.0433
      9 C           6.2385    0.6703    0.0000 C.3     1  UNL1       -0.0433
     10 H           3.9595    0.0592    0.0000 H       1  UNL1        0.0346
     11 H           3.7328   -0.9066    0.0000 H       1  UNL1        0.0346
     12 H           3.5547    2.1940    0.0000 H       1  UNL1        0.0277
     13 H           2.6238    1.7536    0.0000 H       1  UNL1        0.0277
     14 H           1.8057    0.6496    0.0000 H       1  UNL1        0.0271
     15 H           1.4142   -0.1424    0.0000 H       1  UNL1        0.0271
     16 H           1.7636   -1.1022    0.0000 H       1  UNL1        0.0271
     17 H           2.5765   -1.4528    0.0000 H       1  UNL1        0.0271
     18 H           6.5485    0.1333    0.0000 H       1  UNL1        0.0275
     19 H           6.7754    0.9803    0.0000 H       1  UNL1        0.0275
     20 H           5.9285    1.2072    0.0000 H       1  UNL1        0.0275
     21 H           5.0767   -1.9717    0.0000 H       1  UNL1        0.0275
     22 H           5.9237   -2.1986    0.0000 H       1  UNL1        0.0275
     23 H           6.1506   -1.3517    0.0000 H       1  UNL1        0.0275
@<TRIPOS>BOND
     1     1     3    1
     2     1     4    1
     3     1     6    1
     4     1    11    1
     5     2     3    1
     6     2     5    1
     7     2     7    1
     8     2    10    1
     9     3    12    1
    10     3    13    1
    11     4     5    1
    12     4    16    1
    13     4    17    1
    14     5    14    1
    15     5    15    1
    16     6     7    2
    17     6     8    1
    18     7     9    1
    19     8    21    1
    20     8    22    1
    21     8    23    1
    22     9    18    1
    23     9    19    1
    24     9    20    1
