@<TRIPOS>MOLECULE
IMPHY013352
 58 57 0 0 0
SMALL
GASTEIGER

@<TRIPOS>ATOM
      1 O           2.8660    0.4400    0.0000 O.3     1  UNL1       -0.4679
      2 O           3.7320   -1.0600    0.0000 O.2     1  UNL1       -0.2509
      3 C           9.7942    0.4400    0.0000 C.3     1  UNL1       -0.0531
      4 C          10.6603   -0.0600    0.0000 C.3     1  UNL1       -0.0531
      5 C           8.9282   -0.0600    0.0000 C.3     1  UNL1       -0.0531
      6 C          11.5263    0.4400    0.0000 C.3     1  UNL1       -0.0531
      7 C           8.0622    0.4400    0.0000 C.3     1  UNL1       -0.0531
      8 C          12.3923   -0.0600    0.0000 C.3     1  UNL1       -0.0530
      9 C           7.1962   -0.0600    0.0000 C.3     1  UNL1       -0.0530
     10 C          13.2583    0.4400    0.0000 C.3     1  UNL1       -0.0528
     11 C           6.3301    0.4400    0.0000 C.3     1  UNL1       -0.0526
     12 C          14.1244   -0.0600    0.0000 C.3     1  UNL1       -0.0496
     13 C           5.4641   -0.0600    0.0000 C.3     1  UNL1       -0.0430
     14 C          14.9904    0.4400    0.0000 C.3     1  UNL1       -0.0345
     15 C           4.5981    0.4400    0.0000 C.3     1  UNL1        0.0449
     16 C          15.8564   -0.0600    0.0000 C.2     1  UNL1       -0.0840
     17 C           3.7320   -0.0600    0.0000 C.2     1  UNL1        0.3068
     18 C          16.7224    0.4400    0.0000 C.2     1  UNL1       -0.0660
     19 C          17.5885   -0.0600    0.0000 C.2     1  UNL1       -0.0662
     20 C           2.0000   -0.0600    0.0000 C.3     1  UNL1        0.0817
     21 C          18.4545    0.4400    0.0000 C.2     1  UNL1       -0.0871
     22 C          19.3205   -0.0600    0.0000 C.3     1  UNL1       -0.0465
     23 H          10.1928    0.9149    0.0000 H       1  UNL1        0.0265
     24 H           9.3957    0.9149    0.0000 H       1  UNL1        0.0265
     25 H          10.2617   -0.5349    0.0000 H       1  UNL1        0.0265
     26 H          11.0588   -0.5349    0.0000 H       1  UNL1        0.0265
     27 H           8.5297   -0.5349    0.0000 H       1  UNL1        0.0265
     28 H           9.3267   -0.5349    0.0000 H       1  UNL1        0.0265
     29 H          11.9248    0.9149    0.0000 H       1  UNL1        0.0265
     30 H          11.1278    0.9149    0.0000 H       1  UNL1        0.0265
     31 H           8.4607    0.9149    0.0000 H       1  UNL1        0.0265
     32 H           7.6636    0.9149    0.0000 H       1  UNL1        0.0265
     33 H          11.9938   -0.5349    0.0000 H       1  UNL1        0.0265
     34 H          12.7908   -0.5349    0.0000 H       1  UNL1        0.0265
     35 H           6.7976   -0.5349    0.0000 H       1  UNL1        0.0265
     36 H           7.5947   -0.5349    0.0000 H       1  UNL1        0.0265
     37 H          13.6569    0.9149    0.0000 H       1  UNL1        0.0265
     38 H          12.8598    0.9149    0.0000 H       1  UNL1        0.0265
     39 H           6.7287    0.9149    0.0000 H       1  UNL1        0.0265
     40 H           5.9316    0.9149    0.0000 H       1  UNL1        0.0265
     41 H          13.7258   -0.5349    0.0000 H       1  UNL1        0.0268
     42 H          14.5229   -0.5349    0.0000 H       1  UNL1        0.0268
     43 H           5.0656   -0.5349    0.0000 H       1  UNL1        0.0270
     44 H           5.8626   -0.5349    0.0000 H       1  UNL1        0.0270
     45 H          15.3889    0.9149    0.0000 H       1  UNL1        0.0307
     46 H          14.5919    0.9149    0.0000 H       1  UNL1        0.0307
     47 H           4.9966    0.9149    0.0000 H       1  UNL1        0.0377
     48 H           4.1996    0.9149    0.0000 H       1  UNL1        0.0377
     49 H          15.8564   -0.6800    0.0000 H       1  UNL1        0.0572
     50 H          16.7224    1.0600    0.0000 H       1  UNL1        0.0614
     51 H          17.5885   -0.6800    0.0000 H       1  UNL1        0.0614
     52 H           1.6900    0.4769    0.0000 H       1  UNL1        0.0661
     53 H           1.4631   -0.3700    0.0000 H       1  UNL1        0.0661
     54 H           2.3100   -0.5969    0.0000 H       1  UNL1        0.0661
     55 H          18.4545    1.0600    0.0000 H       1  UNL1        0.0569
     56 H          19.0105   -0.5969    0.0000 H       1  UNL1        0.0272
     57 H          19.8574   -0.3700    0.0000 H       1  UNL1        0.0272
     58 H          19.6305    0.4769    0.0000 H       1  UNL1        0.0272
@<TRIPOS>BOND
     1     1    17    1
     2     1    20    1
     3     2    17    2
     4     3     4    1
     5     3     5    1
     6     3    23    1
     7     3    24    1
     8     4     6    1
     9     4    25    1
    10     4    26    1
    11     5     7    1
    12     5    27    1
    13     5    28    1
    14     6     8    1
    15     6    29    1
    16     6    30    1
    17     7     9    1
    18     7    31    1
    19     7    32    1
    20     8    10    1
    21     8    33    1
    22     8    34    1
    23     9    11    1
    24     9    35    1
    25     9    36    1
    26    10    12    1
    27    10    37    1
    28    10    38    1
    29    11    13    1
    30    11    39    1
    31    11    40    1
    32    12    14    1
    33    12    41    1
    34    12    42    1
    35    13    15    1
    36    13    43    1
    37    13    44    1
    38    14    16    1
    39    14    45    1
    40    14    46    1
    41    15    17    1
    42    15    47    1
    43    15    48    1
    44    16    18    2
    45    16    49    1
    46    18    19    1
    47    18    50    1
    48    19    21    2
    49    19    51    1
    50    20    52    1
    51    20    53    1
    52    20    54    1
    53    21    22    1
    54    21    55    1
    55    22    56    1
    56    22    57    1
    57    22    58    1
