@<TRIPOS>MOLECULE
IMPHY004019
 51 52 0 0 0
SMALL
GASTEIGER

@<TRIPOS>ATOM
      1 O           4.7970   -1.9870    0.0000 O.3     1  UNL1       -0.4532
      2 O           3.7320    0.7500    0.0000 O.3     1  UNL1       -0.4570
      3 O           8.0622   -2.7500    0.0000 O.3     1  UNL1       -0.3872
      4 O           2.9631   -2.4340    0.0000 O.2     1  UNL1       -0.2453
      5 O           4.5981    2.2500    0.0000 O.2     1  UNL1       -0.2453
      6 C           4.5981   -0.7500    0.0000 C.3     1  UNL1        0.0683
      7 C           4.5981    0.2500    0.0000 C.3     1  UNL1        0.1177
      8 C           5.4641   -1.2500    0.0000 C.3     1  UNL1        0.1322
      9 C           5.4641    0.7500    0.0000 C.3     1  UNL1        0.0060
     10 C           3.6263   -0.9592    0.0000 C.2     1  UNL1        0.0400
     11 C           5.4641   -2.2500    0.0000 C.2     1  UNL1       -0.0418
     12 C           6.3301    0.2500    0.0000 C.2     1  UNL1       -0.0729
     13 C           3.7062   -1.7649    0.0000 C.2     1  UNL1        0.3357
     14 C           6.3301   -2.7500    0.0000 C.2     1  UNL1       -0.0447
     15 C           7.1962   -2.2500    0.0000 C.3     1  UNL1        0.0795
     16 C           7.1962   -1.2500    0.0000 C.3     1  UNL1       -0.0045
     17 C           6.3301   -0.7500    0.0000 C.2     1  UNL1       -0.0822
     18 C           2.7594   -0.4607    0.0000 C.2     1  UNL1       -0.0882
     19 C           7.1962    0.7500    0.0000 C.3     1  UNL1       -0.0437
     20 C           6.3301   -3.7500    0.0000 C.3     1  UNL1       -0.0412
     21 C           3.7320    1.7500    0.0000 C.2     1  UNL1        0.3349
     22 C           2.8660    2.2500    0.0000 C.2     1  UNL1        0.0293
     23 C           2.0000    1.7500    0.0000 C.3     1  UNL1       -0.0333
     24 C           2.8660    3.2500    0.0000 C.2     1  UNL1       -0.0774
     25 C           3.7320    3.7500    0.0000 C.3     1  UNL1       -0.0461
     26 H           3.9368   -0.2159    0.0000 H       1  UNL1        0.0427
     27 H           4.5981    0.8700    0.0000 H       1  UNL1        0.0744
     28 H           6.2002   -0.8250    0.0000 H       1  UNL1        0.0787
     29 H           5.8626    1.2250    0.0000 H       1  UNL1        0.0346
     30 H           5.0656    1.2250    0.0000 H       1  UNL1        0.0346
     31 H           4.9891   -2.6485    0.0000 H       1  UNL1        0.0609
     32 H           7.7331   -1.9400    0.0000 H       1  UNL1        0.0643
     33 H           7.8067   -1.3577    0.0000 H       1  UNL1        0.0336
     34 H           7.4082   -0.6674    0.0000 H       1  UNL1        0.0336
     35 H           5.7196   -0.6422    0.0000 H       1  UNL1        0.0572
     36 H           2.7583    0.1593    0.0000 H       1  UNL1        0.0540
     37 H           2.2230   -0.7716    0.0000 H       1  UNL1        0.0540
     38 H           7.5062    0.2131    0.0000 H       1  UNL1        0.0274
     39 H           7.7331    1.0600    0.0000 H       1  UNL1        0.0274
     40 H           6.8862    1.2869    0.0000 H       1  UNL1        0.0274
     41 H           5.7101   -3.7500    0.0000 H       1  UNL1        0.0275
     42 H           6.3301   -4.3700    0.0000 H       1  UNL1        0.0275
     43 H           6.9501   -3.7500    0.0000 H       1  UNL1        0.0275
     44 H           8.5991   -2.4400    0.0000 H       1  UNL1        0.2102
     45 H           1.6900    2.2869    0.0000 H       1  UNL1        0.0280
     46 H           1.4631    1.4400    0.0000 H       1  UNL1        0.0280
     47 H           2.3100    1.2131    0.0000 H       1  UNL1        0.0280
     48 H           2.3291    3.5600    0.0000 H       1  UNL1        0.0574
     49 H           4.0420    3.2131    0.0000 H       1  UNL1        0.0272
     50 H           4.2690    4.0600    0.0000 H       1  UNL1        0.0272
     51 H           3.4220    4.2869    0.0000 H       1  UNL1        0.0272
@<TRIPOS>BOND
     1     1     8    1
     2     1    13    1
     3     7     2    1
     4     2    21    1
     5    15     3    1
     6     3    44    1
     7     4    13    2
     8     5    21    2
     9     6     7    1
    10     6     8    1
    11     6    10    1
    12     6    26    1
    13     7     9    1
    14     7    27    1
    15     8    11    1
    16     8    28    1
    17     9    12    1
    18     9    29    1
    19     9    30    1
    20    10    13    1
    21    10    18    2
    22    11    14    2
    23    11    31    1
    24    12    17    2
    25    12    19    1
    26    14    15    1
    27    14    20    1
    28    15    16    1
    29    15    32    1
    30    16    17    1
    31    16    33    1
    32    16    34    1
    33    17    35    1
    34    18    36    1
    35    18    37    1
    36    19    38    1
    37    19    39    1
    38    19    40    1
    39    20    41    1
    40    20    42    1
    41    20    43    1
    42    21    22    1
    43    22    23    1
    44    22    24    2
    45    23    45    1
    46    23    46    1
    47    23    47    1
    48    24    25    1
    49    24    48    1
    50    25    49    1
    51    25    50    1
    52    25    51    1
