@<TRIPOS>MOLECULE
IMPHY015231
 26 25 0 0 0
SMALL
GASTEIGER

@<TRIPOS>ATOM
      1 C           3.7320    0.2500    0.0000 C.3     1  UNL1       -0.0439
      2 C           4.5981    0.7500    0.0000 C.3     1  UNL1       -0.0481
      3 C           5.4641    0.2500    0.0000 C.3     1  UNL1       -0.0465
      4 C           2.8660    0.7500    0.0000 C.3     1  UNL1       -0.0533
      5 C           3.7320   -0.7500    0.0000 C.3     1  UNL1       -0.0624
      6 C           6.3301    0.7500    0.0000 C.3     1  UNL1       -0.0627
      7 C           5.4641   -0.7500    0.0000 C.3     1  UNL1       -0.0627
      8 C           2.0000    0.2500    0.0000 C.3     1  UNL1       -0.0650
      9 H           4.2690   -0.0600    0.0000 H       1  UNL1        0.0298
     10 H           4.9966    1.2250    0.0000 H       1  UNL1        0.0270
     11 H           4.1996    1.2250    0.0000 H       1  UNL1        0.0270
     12 H           5.4641    0.8700    0.0000 H       1  UNL1        0.0296
     13 H           3.2646    1.2250    0.0000 H       1  UNL1        0.0265
     14 H           2.4675    1.2250    0.0000 H       1  UNL1        0.0265
     15 H           3.1120   -0.7500    0.0000 H       1  UNL1        0.0232
     16 H           3.7320   -1.3700    0.0000 H       1  UNL1        0.0232
     17 H           4.3520   -0.7500    0.0000 H       1  UNL1        0.0232
     18 H           6.6401    0.2131    0.0000 H       1  UNL1        0.0232
     19 H           6.8671    1.0600    0.0000 H       1  UNL1        0.0232
     20 H           6.0201    1.2869    0.0000 H       1  UNL1        0.0232
     21 H           4.8441   -0.7500    0.0000 H       1  UNL1        0.0232
     22 H           5.4641   -1.3700    0.0000 H       1  UNL1        0.0232
     23 H           6.0841   -0.7500    0.0000 H       1  UNL1        0.0232
     24 H           1.6900    0.7869    0.0000 H       1  UNL1        0.0230
     25 H           1.4631   -0.0600    0.0000 H       1  UNL1        0.0230
     26 H           2.3100   -0.2869    0.0000 H       1  UNL1        0.0230
@<TRIPOS>BOND
     1     1     2    1
     2     1     4    1
     3     1     5    1
     4     1     9    1
     5     2     3    1
     6     2    10    1
     7     2    11    1
     8     3     6    1
     9     3     7    1
    10     3    12    1
    11     4     8    1
    12     4    13    1
    13     4    14    1
    14     5    15    1
    15     5    16    1
    16     5    17    1
    17     6    18    1
    18     6    19    1
    19     6    20    1
    20     7    21    1
    21     7    22    1
    22     7    23    1
    23     8    24    1
    24     8    25    1
    25     8    26    1
