@<TRIPOS>MOLECULE
IMPHY001085
 48 50 0 0 0
SMALL
GASTEIGER

@<TRIPOS>ATOM
      1 O          11.6065   -0.2553    0.0000 O.3     1  UNL1       -0.4526
      2 O          11.6065   -1.8647    0.0000 O.3     1  UNL1       -0.4526
      3 O           2.0000   -0.5600    0.0000 O.3     1  UNL1       -0.4915
      4 O           2.0000    1.4400    0.0000 O.3     1  UNL1       -0.5033
      5 C           7.1962   -0.5600    0.0000 C.3     1  UNL1       -0.0370
      6 C           6.3301   -0.0600    0.0000 C.3     1  UNL1       -0.0370
      7 C           8.0622   -0.0600    0.0000 C.3     1  UNL1       -0.0247
      8 C           5.4641   -0.5600    0.0000 C.3     1  UNL1       -0.0247
      9 C           7.1962   -1.5600    0.0000 C.3     1  UNL1       -0.0619
     10 C           6.3301    0.9400    0.0000 C.3     1  UNL1       -0.0619
     11 C           8.9282   -0.5600    0.0000 C.ar    1  UNL1       -0.0434
     12 C           4.5981   -0.0600    0.0000 C.ar    1  UNL1       -0.0434
     13 C           9.7942   -0.0600    0.0000 C.ar    1  UNL1       -0.0130
     14 C           8.9282   -1.5600    0.0000 C.ar    1  UNL1       -0.0549
     15 C           3.7320   -0.5600    0.0000 C.ar    1  UNL1       -0.0131
     16 C           4.5981    0.9400    0.0000 C.ar    1  UNL1       -0.0549
     17 C          10.6603   -0.5600    0.0000 C.ar    1  UNL1        0.1665
     18 C          10.6603   -1.5600    0.0000 C.ar    1  UNL1        0.1662
     19 C           9.7942   -2.0600    0.0000 C.ar    1  UNL1       -0.0159
     20 C           2.8660   -0.0600    0.0000 C.ar    1  UNL1        0.1615
     21 C           3.7320    1.4400    0.0000 C.ar    1  UNL1       -0.0163
     22 C           2.8660    0.9400    0.0000 C.ar    1  UNL1        0.1585
     23 C          12.1901   -1.0600    0.0000 C.3     1  UNL1        0.2332
     24 C           2.0000   -1.5600    0.0000 C.3     1  UNL1        0.0790
     25 H           6.6592   -0.8700    0.0000 H       1  UNL1        0.0304
     26 H           6.8671    0.2500    0.0000 H       1  UNL1        0.0304
     27 H           8.4607    0.4149    0.0000 H       1  UNL1        0.0316
     28 H           7.6636    0.4149    0.0000 H       1  UNL1        0.0316
     29 H           5.0656   -1.0350    0.0000 H       1  UNL1        0.0316
     30 H           5.8626   -1.0350    0.0000 H       1  UNL1        0.0316
     31 H           6.5762   -1.5600    0.0000 H       1  UNL1        0.0233
     32 H           7.1962   -2.1800    0.0000 H       1  UNL1        0.0233
     33 H           7.8162   -1.5600    0.0000 H       1  UNL1        0.0233
     34 H           6.9501    0.9400    0.0000 H       1  UNL1        0.0233
     35 H           6.3301    1.5600    0.0000 H       1  UNL1        0.0233
     36 H           5.7101    0.9400    0.0000 H       1  UNL1        0.0233
     37 H           9.7942    0.5600    0.0000 H       1  UNL1        0.0658
     38 H           8.3913   -1.8700    0.0000 H       1  UNL1        0.0621
     39 H           3.7320   -1.1800    0.0000 H       1  UNL1        0.0658
     40 H           5.1350    1.2500    0.0000 H       1  UNL1        0.0621
     41 H           9.7942   -2.6800    0.0000 H       1  UNL1        0.0655
     42 H           3.7320    2.0600    0.0000 H       1  UNL1        0.0655
     43 H          12.6510   -1.4747    0.0000 H       1  UNL1        0.1166
     44 H          12.6510   -0.6453    0.0000 H       1  UNL1        0.1166
     45 H           2.0000    2.0600    0.0000 H       1  UNL1        0.2923
     46 H           1.3800   -1.5600    0.0000 H       1  UNL1        0.0660
     47 H           2.0000   -2.1800    0.0000 H       1  UNL1        0.0660
     48 H           2.6200   -1.5600    0.0000 H       1  UNL1        0.0660
@<TRIPOS>BOND
     1     1    17    1
     2     1    23    1
     3     2    18    1
     4     2    23    1
     5     3    20    1
     6     3    24    1
     7     4    22    1
     8     4    45    1
     9     5     6    1
    10     5     7    1
    11     5     9    1
    12     5    25    1
    13     6     8    1
    14     6    10    1
    15     6    26    1
    16     7    11    1
    17     7    27    1
    18     7    28    1
    19     8    12    1
    20     8    29    1
    21     8    30    1
    22     9    31    1
    23     9    32    1
    24     9    33    1
    25    10    34    1
    26    10    35    1
    27    10    36    1
    28    11    13   ar
    29    11    14   ar
    30    12    15   ar
    31    12    16   ar
    32    13    17   ar
    33    13    37    1
    34    14    19   ar
    35    14    38    1
    36    15    20   ar
    37    15    39    1
    38    16    21   ar
    39    16    40    1
    40    17    18   ar
    41    18    19   ar
    42    19    41    1
    43    20    22   ar
    44    21    22   ar
    45    21    42    1
    46    23    43    1
    47    23    44    1
    48    24    46    1
    49    24    47    1
    50    24    48    1
