@<TRIPOS>MOLECULE
IMPHY004910
 81 85 0 0 0
SMALL
GASTEIGER

@<TRIPOS>ATOM
      1 O          10.4586    0.9579    0.0000 O.3     1  UNL1       -0.3429
      2 O           6.1847   -2.6114    0.0000 O.3     1  UNL1       -0.3915
      3 O           2.5357   -1.5945    0.0000 O.3     1  UNL1       -0.3918
      4 O          10.9586   -0.9082    0.0000 O.3     1  UNL1       -0.3463
      5 O          11.8247    1.5918    0.0000 O.3     1  UNL1       -0.3865
      6 C           7.9288    0.4579    0.0000 C.3     1  UNL1       -0.0298
      7 C           7.9288    1.4579    0.0000 C.3     1  UNL1       -0.0237
      8 C           7.0628   -0.0421    0.0000 C.3     1  UNL1       -0.0319
      9 C           6.1968    0.4579    0.0000 C.3     1  UNL1       -0.0321
     10 C           5.2868   -0.0490    0.0000 C.3     1  UNL1       -0.0236
     11 C           8.8750    1.7626    0.0000 C.3     1  UNL1       -0.0092
     12 C           5.2787   -1.0906    0.0000 C.3     1  UNL1       -0.0070
     13 C           7.0628    1.9579    0.0000 C.3     1  UNL1       -0.0467
     14 C           6.1968    1.4579    0.0000 C.3     1  UNL1       -0.0489
     15 C           8.8750    0.1531    0.0000 C.3     1  UNL1       -0.0226
     16 C           7.0789   -1.0836    0.0000 C.3     1  UNL1       -0.0232
     17 C           9.4586    0.9579    0.0000 C.3     1  UNL1        0.0656
     18 C           6.1808   -1.6114    0.0000 C.3     1  UNL1        0.0589
     19 C           4.3599    0.5151    0.0000 C.3     1  UNL1       -0.0447
     20 C           7.9288    2.4579    0.0000 C.3     1  UNL1       -0.0590
     21 C           4.3433   -1.6403    0.0000 C.3     1  UNL1       -0.0212
     22 C           5.2945    0.9510    0.0000 C.3     1  UNL1       -0.0590
     23 C           9.1857    2.7131    0.0000 C.3     1  UNL1       -0.0502
     24 C           3.4120   -0.0129    0.0000 C.3     1  UNL1       -0.0263
     25 C           3.4037   -1.0978    0.0000 C.3     1  UNL1        0.0556
     26 C          10.1642    2.9193    0.0000 C.3     1  UNL1       -0.0649
     27 C          10.9586    0.0918    0.0000 C.3     1  UNL1        0.1934
     28 C          11.8247    0.5918    0.0000 C.3     1  UNL1        0.1090
     29 C           9.9586    0.0918    0.0000 C.3     1  UNL1       -0.0080
     30 C          12.6907    0.0918    0.0000 C.3     1  UNL1       -0.0171
     31 C          12.6907   -0.9082    0.0000 C.3     1  UNL1       -0.0178
     32 C          11.8247   -1.4082    0.0000 C.3     1  UNL1        0.0537
     33 C          13.5567   -1.4082    0.0000 C.3     1  UNL1       -0.0602
     34 H           8.0188   -0.3874    0.0000 H       1  UNL1        0.0310
     35 H           7.8022   -0.4615    0.0000 H       1  UNL1        0.0307
     36 H           6.9329    0.8829    0.0000 H       1  UNL1        0.0309
     37 H           9.4875    1.8588    0.0000 H       1  UNL1        0.0331
     38 H           5.2820   -1.9406    0.0000 H       1  UNL1        0.0332
     39 H           7.4613    2.4328    0.0000 H       1  UNL1        0.0271
     40 H           6.6643    2.4328    0.0000 H       1  UNL1        0.0271
     41 H           5.9847    2.0405    0.0000 H       1  UNL1        0.0268
     42 H           5.5862    1.3502    0.0000 H       1  UNL1        0.0268
     43 H           8.6240   -0.4138    0.0000 H       1  UNL1        0.0293
     44 H           9.4124   -0.1561    0.0000 H       1  UNL1        0.0293
     45 H           7.2969   -1.6640    0.0000 H       1  UNL1        0.0293
     46 H           7.6880   -0.9682    0.0000 H       1  UNL1        0.0293
     47 H           9.7404    1.5102    0.0000 H       1  UNL1        0.0600
     48 H           6.7195   -1.9183    0.0000 H       1  UNL1        0.0596
     49 H           4.7681    0.9817    0.0000 H       1  UNL1        0.0271
     50 H           3.9700    0.9971    0.0000 H       1  UNL1        0.0271
     51 H           8.5488    2.4579    0.0000 H       1  UNL1        0.0235
     52 H           7.9288    3.0779    0.0000 H       1  UNL1        0.0235
     53 H           7.3088    2.4579    0.0000 H       1  UNL1        0.0235
     54 H           3.9460   -2.1163    0.0000 H       1  UNL1        0.0294
     55 H           4.7443   -2.1132    0.0000 H       1  UNL1        0.0294
     56 H           5.9145    0.9462    0.0000 H       1  UNL1        0.0235
     57 H           5.2993    1.5710    0.0000 H       1  UNL1        0.0235
     58 H           4.6745    0.9558    0.0000 H       1  UNL1        0.0235
     59 H           9.1651    3.3328    0.0000 H       1  UNL1        0.0266
     60 H           8.5719    2.8005    0.0000 H       1  UNL1        0.0266
     61 H           3.2075    0.5724    0.0000 H       1  UNL1        0.0290
     62 H           2.8004   -0.1142    0.0000 H       1  UNL1        0.0290
     63 H           2.8686   -0.7847    0.0000 H       1  UNL1        0.0593
     64 H           6.7228   -2.9193    0.0000 H       1  UNL1        0.2098
     65 H          10.2921    2.3126    0.0000 H       1  UNL1        0.0230
     66 H          10.7709    3.0472    0.0000 H       1  UNL1        0.0230
     67 H          10.0364    3.5260    0.0000 H       1  UNL1        0.0230
     68 H           2.0000   -1.2824    0.0000 H       1  UNL1        0.2098
     69 H          12.3616    0.9018    0.0000 H       1  UNL1        0.0647
     70 H           9.9586    0.7118    0.0000 H       1  UNL1        0.0282
     71 H           9.3386    0.0918    0.0000 H       1  UNL1        0.0282
     72 H           9.9586   -0.5282    0.0000 H       1  UNL1        0.0282
     73 H          13.3013   -0.0158    0.0000 H       1  UNL1        0.0295
     74 H          12.9028    0.6744    0.0000 H       1  UNL1        0.0295
     75 H          12.6907   -1.5282    0.0000 H       1  UNL1        0.0321
     76 H          11.4261   -1.8831    0.0000 H       1  UNL1        0.0563
     77 H          12.2232   -1.8831    0.0000 H       1  UNL1        0.0563
     78 H          12.3616    1.9018    0.0000 H       1  UNL1        0.2100
     79 H          13.2467   -1.9451    0.0000 H       1  UNL1        0.0233
     80 H          14.0937   -1.7182    0.0000 H       1  UNL1        0.0233
     81 H          13.8667   -0.8712    0.0000 H       1  UNL1        0.0233
@<TRIPOS>BOND
     1    17     1    1
     2    27     1    1
     3    18     2    1
     4     2    64    1
     5    25     3    1
     6     3    68    1
     7     4    27    1
     8     4    32    1
     9     5    28    1
    10     5    78    1
    11     6     7    1
    12     6     8    1
    13     6    15    1
    14     6    34    1
    15     7    11    1
    16     7    13    1
    17     7    20    1
    18     8     9    1
    19     8    16    1
    20     8    35    1
    21     9    10    1
    22     9    14    1
    23     9    36    1
    24    10    12    1
    25    10    19    1
    26    10    22    1
    27    11    17    1
    28    11    23    1
    29    11    37    1
    30    12    18    1
    31    12    21    1
    32    12    38    1
    33    13    14    1
    34    13    39    1
    35    13    40    1
    36    14    41    1
    37    14    42    1
    38    15    17    1
    39    15    43    1
    40    15    44    1
    41    16    18    1
    42    16    45    1
    43    16    46    1
    44    17    47    1
    45    18    48    1
    46    19    24    1
    47    19    49    1
    48    19    50    1
    49    20    51    1
    50    20    52    1
    51    20    53    1
    52    21    25    1
    53    21    54    1
    54    21    55    1
    55    22    56    1
    56    22    57    1
    57    22    58    1
    58    23    26    1
    59    23    59    1
    60    23    60    1
    61    24    25    1
    62    24    61    1
    63    24    62    1
    64    25    63    1
    65    26    65    1
    66    26    66    1
    67    26    67    1
    68    27    28    1
    69    27    29    1
    70    28    30    1
    71    28    69    1
    72    29    70    1
    73    29    71    1
    74    29    72    1
    75    30    31    1
    76    30    73    1
    77    30    74    1
    78    31    32    1
    79    31    33    1
    80    31    75    1
    81    32    76    1
    82    32    77    1
    83    33    79    1
    84    33    80    1
    85    33    81    1
