@<TRIPOS>MOLECULE
IMPHY011051
 50 52 0 0 0
SMALL
GASTEIGER

@<TRIPOS>ATOM
      1 C           3.8000   -1.3193    0.0000 C.3     1  UNL1       -0.0262
      2 C           3.8000   -0.3193    0.0000 C.3     1  UNL1       -0.0035
      3 C           2.9061   -1.8540    0.0000 C.3     1  UNL1       -0.0312
      4 C           2.9061    0.2153    0.0000 C.3     1  UNL1       -0.0433
      5 C           2.0000   -1.3402    0.0000 C.3     1  UNL1       -0.0476
      6 C           4.6660   -1.8193    0.0000 C.3     1  UNL1       -0.0449
      7 C           2.0000   -0.2985    0.0000 C.3     1  UNL1       -0.0518
      8 C           4.6660    0.1807    0.0000 C.ar    1  UNL1       -0.0380
      9 C           5.5321   -1.3193    0.0000 C.3     1  UNL1       -0.0271
     10 C           3.8000    0.6807    0.0000 C.3     1  UNL1       -0.0553
     11 C           2.4161   -2.7258    0.0000 C.3     1  UNL1       -0.0595
     12 C           3.4160   -2.7142    0.0000 C.3     1  UNL1       -0.0595
     13 C           5.5321   -0.3193    0.0000 C.ar    1  UNL1       -0.0434
     14 C           4.6500    1.2222    0.0000 C.ar    1  UNL1       -0.0575
     15 C           6.4421    0.1875    0.0000 C.ar    1  UNL1       -0.0549
     16 C           6.4501    1.2291    0.0000 C.ar    1  UNL1       -0.0445
     17 C           5.5480    1.7499    0.0000 C.ar    1  UNL1       -0.0580
     18 C           7.3180    1.7258    0.0000 C.3     1  UNL1       -0.0215
     19 C           7.3219    2.7258    0.0000 C.3     1  UNL1       -0.0586
     20 C           8.1821    1.2224    0.0000 C.3     1  UNL1       -0.0586
     21 H           3.8066   -2.1693    0.0000 H       1  UNL1        0.0314
     22 H           3.3107    0.6851    0.0000 H       1  UNL1        0.0274
     23 H           2.5124    0.6943    0.0000 H       1  UNL1        0.0274
     24 H           1.3891   -1.2341    0.0000 H       1  UNL1        0.0271
     25 H           1.7909   -1.9238    0.0000 H       1  UNL1        0.0271
     26 H           4.2675   -2.2943    0.0000 H       1  UNL1        0.0271
     27 H           5.0646   -2.2943    0.0000 H       1  UNL1        0.0271
     28 H           1.7909    0.2852    0.0000 H       1  UNL1        0.0266
     29 H           1.3891   -0.4046    0.0000 H       1  UNL1        0.0266
     30 H           5.7441   -1.9020    0.0000 H       1  UNL1        0.0313
     31 H           6.1426   -1.2117    0.0000 H       1  UNL1        0.0313
     32 H           4.4200    0.6807    0.0000 H       1  UNL1        0.0238
     33 H           3.8000    1.3007    0.0000 H       1  UNL1        0.0238
     34 H           3.1800    0.6807    0.0000 H       1  UNL1        0.0238
     35 H           1.8756   -2.4220    0.0000 H       1  UNL1        0.0235
     36 H           2.1123   -3.2662    0.0000 H       1  UNL1        0.0235
     37 H           2.9566   -3.0295    0.0000 H       1  UNL1        0.0235
     38 H           2.8827   -3.0304    0.0000 H       1  UNL1        0.0235
     39 H           3.7322   -3.2475    0.0000 H       1  UNL1        0.0235
     40 H           3.9494   -2.3980    0.0000 H       1  UNL1        0.0235
     41 H           4.1095    1.5259    0.0000 H       1  UNL1        0.0621
     42 H           6.9754   -0.1287    0.0000 H       1  UNL1        0.0623
     43 H           5.5456    2.3699    0.0000 H       1  UNL1        0.0620
     44 H           7.8562    2.0337    0.0000 H       1  UNL1        0.0343
     45 H           7.9419    2.7234    0.0000 H       1  UNL1        0.0235
     46 H           7.3243    3.3458    0.0000 H       1  UNL1        0.0235
     47 H           6.7019    2.7281    0.0000 H       1  UNL1        0.0235
     48 H           7.8701    0.6867    0.0000 H       1  UNL1        0.0235
     49 H           8.7179    0.9104    0.0000 H       1  UNL1        0.0235
     50 H           8.4942    1.7582    0.0000 H       1  UNL1        0.0235
@<TRIPOS>BOND
     1     1     2    1
     2     1     3    1
     3     1     6    1
     4     1    21    1
     5     2     4    1
     6     2     8    1
     7     2    10    1
     8     3     5    1
     9     3    11    1
    10     3    12    1
    11     4     7    1
    12     4    22    1
    13     4    23    1
    14     5     7    1
    15     5    24    1
    16     5    25    1
    17     6     9    1
    18     6    26    1
    19     6    27    1
    20     7    28    1
    21     7    29    1
    22     8    13   ar
    23     8    14   ar
    24     9    13    1
    25     9    30    1
    26     9    31    1
    27    10    32    1
    28    10    33    1
    29    10    34    1
    30    11    35    1
    31    11    36    1
    32    11    37    1
    33    12    38    1
    34    12    39    1
    35    12    40    1
    36    13    15   ar
    37    14    17   ar
    38    14    41    1
    39    15    16   ar
    40    15    42    1
    41    16    17   ar
    42    16    18    1
    43    17    43    1
    44    18    19    1
    45    18    20    1
    46    18    44    1
    47    19    45    1
    48    19    46    1
    49    19    47    1
    50    20    48    1
    51    20    49    1
    52    20    50    1
