@<TRIPOS>MOLECULE
IMPHY003776
 83 87 0 0 0
SMALL
GASTEIGER

@<TRIPOS>ATOM
      1 O           4.7621   -4.9243    0.0000 O.3     1  UNL1       -0.3912
      2 O           7.0399    5.0552    0.0000 O.3     1  UNL1       -0.3912
      3 O           2.2712   -4.4268    0.0000 O.3     1  UNL1       -0.3944
      4 C           4.4894   -1.7807    0.0000 C.3     1  UNL1       -0.0252
      5 C           4.3955   -0.7433    0.0000 C.3     1  UNL1       -0.0296
      6 C           3.4945   -0.3094    0.0000 C.3     1  UNL1       -0.0250
      7 C           3.6333   -2.3741    0.0000 C.3     1  UNL1       -0.0255
      8 C           3.7060   -3.4566    0.0000 C.3     1  UNL1        0.0203
      9 C           5.4302    2.3413    0.0000 C.3     1  UNL1       -0.0218
     10 C           4.8955    1.4474    0.0000 C.3     1  UNL1       -0.0142
     11 C           2.6250   -0.8828    0.0000 C.3     1  UNL1       -0.0468
     12 C           2.6948   -1.9221    0.0000 C.3     1  UNL1       -0.0485
     13 C           5.2965   -0.3094    0.0000 C.3     1  UNL1       -0.0486
     14 C           5.4775   -2.2287    0.0000 C.3     1  UNL1       -0.0447
     15 C           3.2720    0.6655    0.0000 C.3     1  UNL1       -0.0258
     16 C           4.9163    3.2474    0.0000 C.3     1  UNL1       -0.0242
     17 C           5.5190    0.6655    0.0000 C.3     1  UNL1       -0.0457
     18 C           3.8955    1.4474    0.0000 C.2     1  UNL1       -0.0693
     19 C           4.6835   -3.9274    0.0000 C.3     1  UNL1        0.0630
     20 C           5.5753   -3.3093    0.0000 C.3     1  UNL1       -0.0257
     21 C           5.3112   -1.2110    0.0000 C.3     1  UNL1       -0.0590
     22 C           5.4516    4.1912    0.0000 C.3     1  UNL1       -0.0053
     23 C           2.5936    0.1245    0.0000 C.3     1  UNL1       -0.0590
     24 C           6.5149    2.3162    0.0000 C.3     1  UNL1       -0.0444
     25 C           3.8747    3.2474    0.0000 C.3     1  UNL1       -0.0306
     26 C           3.3608    2.3413    0.0000 C.2     1  UNL1       -0.0842
     27 C           6.5366    4.1912    0.0000 C.3     1  UNL1        0.0606
     28 C           3.2686   -4.3559    0.0000 C.3     1  UNL1        0.0522
     29 C           2.7085   -3.5275    0.0000 C.3     1  UNL1       -0.0548
     30 C           7.0718    3.2474    0.0000 C.3     1  UNL1       -0.0258
     31 C           5.9235    1.4714    0.0000 C.3     1  UNL1       -0.0587
     32 C           5.4477    5.1912    0.0000 C.3     1  UNL1       -0.0572
     33 C           4.5836    4.6878    0.0000 C.3     1  UNL1       -0.0572
     34 H           5.1349   -1.1626    0.0000 H       1  UNL1        0.0311
     35 H           2.9291   -2.8502    0.0000 H       1  UNL1        0.0313
     36 H           5.7436    1.5043    0.0000 H       1  UNL1        0.0351
     37 H           2.3772   -0.3145    0.0000 H       1  UNL1        0.0271
     38 H           2.0226   -1.0296    0.0000 H       1  UNL1        0.0271
     39 H           2.0782   -1.8572    0.0000 H       1  UNL1        0.0268
     40 H           2.5253   -2.5185    0.0000 H       1  UNL1        0.0268
     41 H           5.4344   -0.9139    0.0000 H       1  UNL1        0.0268
     42 H           5.9165   -0.3094    0.0000 H       1  UNL1        0.0268
     43 H           6.0954   -2.2793    0.0000 H       1  UNL1        0.0271
     44 H           5.6331   -1.6286    0.0000 H       1  UNL1        0.0271
     45 H           2.8854    1.1503    0.0000 H       1  UNL1        0.0315
     46 H           2.7134    0.3965    0.0000 H       1  UNL1        0.0315
     47 H           4.4885    3.9818    0.0000 H       1  UNL1        0.0315
     48 H           6.0776    0.3965    0.0000 H       1  UNL1        0.0271
     49 H           5.9056    1.1503    0.0000 H       1  UNL1        0.0271
     50 H           4.1720   -4.2776    0.0000 H       1  UNL1        0.0599
     51 H           5.8361   -3.8718    0.0000 H       1  UNL1        0.0290
     52 H           6.1741   -3.1486    0.0000 H       1  UNL1        0.0290
     53 H           5.6644   -1.7206    0.0000 H       1  UNL1        0.0235
     54 H           5.8208   -0.8578    0.0000 H       1  UNL1        0.0235
     55 H           4.9580   -0.7014    0.0000 H       1  UNL1        0.0235
     56 H           2.8626    0.6831    0.0000 H       1  UNL1        0.0235
     57 H           2.0350    0.3935    0.0000 H       1  UNL1        0.0235
     58 H           2.3246   -0.4341    0.0000 H       1  UNL1        0.0235
     59 H           6.3947    1.7080    0.0000 H       1  UNL1        0.0272
     60 H           7.0936    2.0937    0.0000 H       1  UNL1        0.0272
     61 H           3.9808    3.8582    0.0000 H       1  UNL1        0.0310
     62 H           3.2910    3.4564    0.0000 H       1  UNL1        0.0310
     63 H           2.7409    2.3341    0.0000 H       1  UNL1        0.0572
     64 H           6.2276    4.7287    0.0000 H       1  UNL1        0.0599
     65 H           3.2045   -4.9726    0.0000 H       1  UNL1        0.0563
     66 H           3.8648   -4.5261    0.0000 H       1  UNL1        0.0563
     67 H           2.6646   -2.9091    0.0000 H       1  UNL1        0.0237
     68 H           2.0901   -3.5715    0.0000 H       1  UNL1        0.0237
     69 H           2.7525   -4.1460    0.0000 H       1  UNL1        0.0237
     70 H           7.5416    2.8428    0.0000 H       1  UNL1        0.0290
     71 H           7.5508    3.6410    0.0000 H       1  UNL1        0.0290
     72 H           5.3842    1.1656    0.0000 H       1  UNL1        0.0235
     73 H           6.2293    0.9321    0.0000 H       1  UNL1        0.0235
     74 H           6.4628    1.7773    0.0000 H       1  UNL1        0.0235
     75 H           6.0677    5.1935    0.0000 H       1  UNL1        0.0236
     76 H           5.4453    5.8111    0.0000 H       1  UNL1        0.0236
     77 H           4.8277    5.1888    0.0000 H       1  UNL1        0.0236
     78 H           4.8915    5.2259    0.0000 H       1  UNL1        0.0236
     79 H           4.0455    4.9957    0.0000 H       1  UNL1        0.0236
     80 H           4.2757    4.1497    0.0000 H       1  UNL1        0.0236
     81 H           5.3218   -5.1912    0.0000 H       1  UNL1        0.2098
     82 H           7.6599    5.0529    0.0000 H       1  UNL1        0.2098
     83 H           2.0000   -4.9844    0.0000 H       1  UNL1        0.2094
@<TRIPOS>BOND
     1    19     1    1
     2     1    81    1
     3    27     2    1
     4     2    82    1
     5     3    28    1
     6     3    83    1
     7     4     5    1
     8     4     7    1
     9     4    14    1
    10     4    21    1
    11     5     6    1
    12     5    13    1
    13     5    34    1
    14     6    11    1
    15     6    15    1
    16     6    23    1
    17     7     8    1
    18     7    12    1
    19     7    35    1
    20     8    19    1
    21     8    28    1
    22     8    29    1
    23     9    10    1
    24     9    16    1
    25     9    24    1
    26     9    31    1
    27    10    17    1
    28    10    18    1
    29    10    36    1
    30    11    12    1
    31    11    37    1
    32    11    38    1
    33    12    39    1
    34    12    40    1
    35    13    17    1
    36    13    41    1
    37    13    42    1
    38    14    20    1
    39    14    43    1
    40    14    44    1
    41    15    18    1
    42    15    45    1
    43    15    46    1
    44    16    22    1
    45    16    25    1
    46    16    47    1
    47    17    48    1
    48    17    49    1
    49    18    26    2
    50    19    20    1
    51    19    50    1
    52    20    51    1
    53    20    52    1
    54    21    53    1
    55    21    54    1
    56    21    55    1
    57    22    27    1
    58    22    32    1
    59    22    33    1
    60    23    56    1
    61    23    57    1
    62    23    58    1
    63    24    30    1
    64    24    59    1
    65    24    60    1
    66    25    26    1
    67    25    61    1
    68    25    62    1
    69    26    63    1
    70    27    30    1
    71    27    64    1
    72    28    65    1
    73    28    66    1
    74    29    67    1
    75    29    68    1
    76    29    69    1
    77    30    70    1
    78    30    71    1
    79    31    72    1
    80    31    73    1
    81    31    74    1
    82    32    75    1
    83    32    76    1
    84    32    77    1
    85    33    78    1
    86    33    79    1
    87    33    80    1
