@<TRIPOS>MOLECULE
IMPHY003225
 64 68 0 0 0
SMALL
GASTEIGER

@<TRIPOS>ATOM
      1 O           3.4685   -1.5283    0.0000 O.3     1  UNL1       -0.4579
      2 O           6.6555   -0.4928    0.0000 O.3     1  UNL1       -0.4646
      3 O           7.0156    1.2014    0.0000 O.2     1  UNL1       -0.2453
      4 O           4.7556   -2.6873    0.0000 O.2     1  UNL1       -0.2456
      5 N           2.6254    1.2492    0.0000 N.3     1  UNL1       -0.2975
      6 N           5.7049    2.2498    0.0000 N.pl3   1  UNL1       -0.3164
      7 C           3.5397    1.0549    0.0000 C.3     1  UNL1        0.0346
      8 C           4.1652    1.7495    0.0000 C.3     1  UNL1        0.0531
      9 C           3.8286    0.1659    0.0000 C.3     1  UNL1        0.0285
     10 C           3.7801    2.7851    0.0000 C.3     1  UNL1       -0.0238
     11 C           3.2031   -0.5287    0.0000 C.3     1  UNL1       -0.0411
     12 C           4.7429   -0.0284    0.0000 C.3     1  UNL1       -0.0089
     13 C           2.3366    2.1382    0.0000 C.3     1  UNL1        0.0004
     14 C           5.0795    1.5552    0.0000 C.2     1  UNL1        0.0304
     15 C           4.1376   -0.7851    0.0000 C.3     1  UNL1        0.1079
     16 C           2.0000    0.5546    0.0000 C.3     1  UNL1       -0.0007
     17 C           4.5018    3.3331    0.0000 C.ar    1  UNL1       -0.0130
     18 C           2.2888   -0.3344    0.0000 C.3     1  UNL1       -0.0395
     19 C           5.3683    0.6662    0.0000 C.2     1  UNL1        0.0551
     20 C           5.4161    3.1388    0.0000 C.ar    1  UNL1        0.0353
     21 C           5.1157   -0.9931    0.0000 C.3     1  UNL1       -0.0271
     22 C           4.2129    4.2221    0.0000 C.ar    1  UNL1       -0.0559
     23 C           6.3465    0.4583    0.0000 C.2     1  UNL1        0.3364
     24 C           6.0415    3.8334    0.0000 C.ar    1  UNL1       -0.0403
     25 C           4.8384    4.9167    0.0000 C.ar    1  UNL1       -0.0614
     26 C           5.7527    4.7224    0.0000 C.ar    1  UNL1       -0.0600
     27 C           3.7775   -2.4794    0.0000 C.2     1  UNL1        0.3321
     28 C           3.1084   -3.2225    0.0000 C.2     1  UNL1        0.0212
     29 C           7.6336   -0.7007    0.0000 C.3     1  UNL1        0.0820
     30 C           3.4174   -4.1736    0.0000 C.2     1  UNL1       -0.0690
     31 C           2.7482   -4.9167    0.0000 C.3     1  UNL1       -0.0435
     32 C           4.3955   -4.3815    0.0000 C.3     1  UNL1       -0.0435
     33 H           3.2771    1.8633    0.0000 H       1  UNL1        0.0482
     34 H           4.3564    3.0138    0.0000 H       1  UNL1        0.0290
     35 H           3.5389    3.3563    0.0000 H       1  UNL1        0.0290
     36 H           2.9709   -1.1036    0.0000 H       1  UNL1        0.0273
     37 H           3.7289   -0.8573    0.0000 H       1  UNL1        0.0273
     38 H           4.5106   -0.6033    0.0000 H       1  UNL1        0.0323
     39 H           5.2687   -0.3570    0.0000 H       1  UNL1        0.0323
     40 H           2.1034    2.7126    0.0000 H       1  UNL1        0.0427
     41 H           1.7542    1.9256    0.0000 H       1  UNL1        0.0427
     42 H           4.5525   -0.3244    0.0000 H       1  UNL1        0.0737
     43 H           1.6183    1.0432    0.0000 H       1  UNL1        0.0427
     44 H           1.4526    0.2635    0.0000 H       1  UNL1        0.0427
     45 H           1.6749   -0.4207    0.0000 H       1  UNL1        0.0278
     46 H           2.2672   -0.9540    0.0000 H       1  UNL1        0.0278
     47 H           6.3114    2.1209    0.0000 H       1  UNL1        0.1519
     48 H           4.9868   -1.5995    0.0000 H       1  UNL1        0.0265
     49 H           5.7222   -1.1220    0.0000 H       1  UNL1        0.0265
     50 H           5.2446   -0.3866    0.0000 H       1  UNL1        0.0265
     51 H           3.6065    4.3510    0.0000 H       1  UNL1        0.0621
     52 H           6.6480    3.7045    0.0000 H       1  UNL1        0.0636
     53 H           4.6468    5.5064    0.0000 H       1  UNL1        0.0618
     54 H           6.1676    5.1831    0.0000 H       1  UNL1        0.0618
     55 H           2.5019   -3.0936    0.0000 H       1  UNL1        0.0688
     56 H           7.5047   -1.3071    0.0000 H       1  UNL1        0.0661
     57 H           8.2401   -0.8296    0.0000 H       1  UNL1        0.0661
     58 H           7.7625   -0.0942    0.0000 H       1  UNL1        0.0661
     59 H           2.2875   -4.5018    0.0000 H       1  UNL1        0.0274
     60 H           2.3334   -5.3774    0.0000 H       1  UNL1        0.0274
     61 H           3.2090   -5.3316    0.0000 H       1  UNL1        0.0274
     62 H           4.2666   -4.9879    0.0000 H       1  UNL1        0.0274
     63 H           5.0020   -4.5104    0.0000 H       1  UNL1        0.0274
     64 H           4.5244   -3.7750    0.0000 H       1  UNL1        0.0274
@<TRIPOS>BOND
     1     1    15    1
     2     1    27    1
     3     2    23    1
     4     2    29    1
     5     3    23    2
     6     4    27    2
     7     5     7    1
     8     5    13    1
     9     5    16    1
    10     6    14    1
    11     6    20    1
    12     6    47    1
    13     7     8    1
    14     7     9    1
    15     7    33    1
    16     8    10    1
    17     8    14    1
    18     8    17    1
    19     9    11    1
    20     9    12    1
    21     9    15    1
    22    10    13    1
    23    10    34    1
    24    10    35    1
    25    11    18    1
    26    11    36    1
    27    11    37    1
    28    12    19    1
    29    12    38    1
    30    12    39    1
    31    13    40    1
    32    13    41    1
    33    14    19    2
    34    15    21    1
    35    15    42    1
    36    16    18    1
    37    16    43    1
    38    16    44    1
    39    17    20   ar
    40    17    22   ar
    41    18    45    1
    42    18    46    1
    43    19    23    1
    44    20    24   ar
    45    21    48    1
    46    21    49    1
    47    21    50    1
    48    22    25   ar
    49    22    51    1
    50    24    26   ar
    51    24    52    1
    52    25    26   ar
    53    25    53    1
    54    26    54    1
    55    27    28    1
    56    28    30    2
    57    28    55    1
    58    29    56    1
    59    29    57    1
    60    29    58    1
    61    30    31    1
    62    30    32    1
    63    31    59    1
    64    31    60    1
    65    31    61    1
    66    32    62    1
    67    32    63    1
    68    32    64    1
