@<TRIPOS>MOLECULE
IMPHY013826
 104 103 0 0 0
SMALL
GASTEIGER

@<TRIPOS>ATOM
      1 O          15.8564    0.7500    0.0000 O.3     1  UNL1       -0.4646
      2 O          14.9904   -0.7500    0.0000 O.2     1  UNL1       -0.2509
      3 C          23.6506    0.2500    0.0000 C.3     1  UNL1       -0.0531
      4 C          22.7846    0.7500    0.0000 C.3     1  UNL1       -0.0531
      5 C          24.5167    0.7500    0.0000 C.3     1  UNL1       -0.0531
      6 C          21.9186    0.2500    0.0000 C.3     1  UNL1       -0.0531
      7 C          25.3827    0.2500    0.0000 C.3     1  UNL1       -0.0531
      8 C          21.0526    0.7500    0.0000 C.3     1  UNL1       -0.0531
      9 C          26.2487    0.7500    0.0000 C.3     1  UNL1       -0.0531
     10 C           8.9282    0.7500    0.0000 C.3     1  UNL1       -0.0531
     11 C           8.0622    0.2500    0.0000 C.3     1  UNL1       -0.0531
     12 C          20.1865    0.2500    0.0000 C.3     1  UNL1       -0.0531
     13 C          27.1147    0.2500    0.0000 C.3     1  UNL1       -0.0531
     14 C           9.7942    0.2500    0.0000 C.3     1  UNL1       -0.0531
     15 C           7.1962    0.7500    0.0000 C.3     1  UNL1       -0.0531
     16 C          10.6603    0.7500    0.0000 C.3     1  UNL1       -0.0531
     17 C           6.3301    0.2500    0.0000 C.3     1  UNL1       -0.0531
     18 C          19.3205    0.7500    0.0000 C.3     1  UNL1       -0.0530
     19 C          27.9808    0.7500    0.0000 C.3     1  UNL1       -0.0531
     20 C          11.5263    0.2500    0.0000 C.3     1  UNL1       -0.0530
     21 C           5.4641    0.7500    0.0000 C.3     1  UNL1       -0.0531
     22 C          18.4545    0.2500    0.0000 C.3     1  UNL1       -0.0500
     23 C          28.8468    0.2500    0.0000 C.3     1  UNL1       -0.0531
     24 C          12.3923    0.7500    0.0000 C.3     1  UNL1       -0.0526
     25 C           4.5981    0.2500    0.0000 C.3     1  UNL1       -0.0531
     26 C          13.2583    0.2500    0.0000 C.3     1  UNL1       -0.0430
     27 C          17.5885    0.7500    0.0000 C.3     1  UNL1       -0.0185
     28 C          29.7128    0.7500    0.0000 C.3     1  UNL1       -0.0533
     29 C           3.7320    0.7500    0.0000 C.3     1  UNL1       -0.0533
     30 C          14.1244    0.7500    0.0000 C.3     1  UNL1        0.0449
     31 C          16.7224    0.2500    0.0000 C.3     1  UNL1        0.0925
     32 C          30.5788    0.2500    0.0000 C.3     1  UNL1       -0.0559
     33 C           2.8660    0.2500    0.0000 C.3     1  UNL1       -0.0559
     34 C          14.9904    0.2500    0.0000 C.2     1  UNL1        0.3071
     35 C          31.4449    0.7500    0.0000 C.3     1  UNL1       -0.0653
     36 C           2.0000    0.7500    0.0000 C.3     1  UNL1       -0.0653
     37 H          23.2521   -0.2249    0.0000 H       1  UNL1        0.0265
     38 H          24.0492   -0.2249    0.0000 H       1  UNL1        0.0265
     39 H          23.1831    1.2250    0.0000 H       1  UNL1        0.0265
     40 H          22.3861    1.2250    0.0000 H       1  UNL1        0.0265
     41 H          24.9152    1.2250    0.0000 H       1  UNL1        0.0265
     42 H          24.1181    1.2250    0.0000 H       1  UNL1        0.0265
     43 H          21.5201   -0.2249    0.0000 H       1  UNL1        0.0265
     44 H          22.3171   -0.2249    0.0000 H       1  UNL1        0.0265
     45 H          24.9842   -0.2249    0.0000 H       1  UNL1        0.0265
     46 H          25.7812   -0.2249    0.0000 H       1  UNL1        0.0265
     47 H          21.4511    1.2250    0.0000 H       1  UNL1        0.0265
     48 H          20.6540    1.2250    0.0000 H       1  UNL1        0.0265
     49 H          26.6472    1.2250    0.0000 H       1  UNL1        0.0265
     50 H          25.8502    1.2250    0.0000 H       1  UNL1        0.0265
     51 H           9.3267    1.2250    0.0000 H       1  UNL1        0.0265
     52 H           8.5297    1.2250    0.0000 H       1  UNL1        0.0265
     53 H           7.6636   -0.2249    0.0000 H       1  UNL1        0.0265
     54 H           8.4607   -0.2249    0.0000 H       1  UNL1        0.0265
     55 H          19.7880   -0.2249    0.0000 H       1  UNL1        0.0265
     56 H          20.5851   -0.2249    0.0000 H       1  UNL1        0.0265
     57 H          26.7162   -0.2249    0.0000 H       1  UNL1        0.0265
     58 H          27.5133   -0.2249    0.0000 H       1  UNL1        0.0265
     59 H           9.3957   -0.2249    0.0000 H       1  UNL1        0.0265
     60 H          10.1928   -0.2249    0.0000 H       1  UNL1        0.0265
     61 H           7.5947    1.2250    0.0000 H       1  UNL1        0.0265
     62 H           6.7976    1.2250    0.0000 H       1  UNL1        0.0265
     63 H          11.0588    1.2250    0.0000 H       1  UNL1        0.0265
     64 H          10.2617    1.2250    0.0000 H       1  UNL1        0.0265
     65 H           5.9316   -0.2249    0.0000 H       1  UNL1        0.0265
     66 H           6.7287   -0.2249    0.0000 H       1  UNL1        0.0265
     67 H          19.7190    1.2250    0.0000 H       1  UNL1        0.0265
     68 H          18.9220    1.2250    0.0000 H       1  UNL1        0.0265
     69 H          28.3793    1.2250    0.0000 H       1  UNL1        0.0265
     70 H          27.5822    1.2250    0.0000 H       1  UNL1        0.0265
     71 H          11.1278   -0.2249    0.0000 H       1  UNL1        0.0265
     72 H          11.9248   -0.2249    0.0000 H       1  UNL1        0.0265
     73 H           5.8626    1.2250    0.0000 H       1  UNL1        0.0265
     74 H           5.0656    1.2250    0.0000 H       1  UNL1        0.0265
     75 H          18.0560   -0.2249    0.0000 H       1  UNL1        0.0266
     76 H          18.8530   -0.2249    0.0000 H       1  UNL1        0.0266
     77 H          28.4483   -0.2249    0.0000 H       1  UNL1        0.0265
     78 H          29.2453   -0.2249    0.0000 H       1  UNL1        0.0265
     79 H          12.7908    1.2250    0.0000 H       1  UNL1        0.0265
     80 H          11.9938    1.2250    0.0000 H       1  UNL1        0.0265
     81 H           4.1996   -0.2249    0.0000 H       1  UNL1        0.0265
     82 H           4.9966   -0.2249    0.0000 H       1  UNL1        0.0265
     83 H          12.8598   -0.2249    0.0000 H       1  UNL1        0.0270
     84 H          13.6569   -0.2249    0.0000 H       1  UNL1        0.0270
     85 H          17.9870    1.2250    0.0000 H       1  UNL1        0.0298
     86 H          17.1899    1.2250    0.0000 H       1  UNL1        0.0298
     87 H          30.1113    1.2250    0.0000 H       1  UNL1        0.0265
     88 H          29.3143    1.2250    0.0000 H       1  UNL1        0.0265
     89 H           4.1306    1.2250    0.0000 H       1  UNL1        0.0265
     90 H           3.3335    1.2250    0.0000 H       1  UNL1        0.0265
     91 H          14.5229    1.2250    0.0000 H       1  UNL1        0.0377
     92 H          13.7258    1.2250    0.0000 H       1  UNL1        0.0377
     93 H          16.3239   -0.2249    0.0000 H       1  UNL1        0.0697
     94 H          17.1210   -0.2249    0.0000 H       1  UNL1        0.0697
     95 H          30.1803   -0.2249    0.0000 H       1  UNL1        0.0263
     96 H          30.9774   -0.2249    0.0000 H       1  UNL1        0.0263
     97 H           2.4675   -0.2249    0.0000 H       1  UNL1        0.0263
     98 H           3.2646   -0.2249    0.0000 H       1  UNL1        0.0263
     99 H          31.7549    0.2131    0.0000 H       1  UNL1        0.0230
    100 H          31.9818    1.0600    0.0000 H       1  UNL1        0.0230
    101 H          31.1349    1.2869    0.0000 H       1  UNL1        0.0230
    102 H           2.3100    1.2869    0.0000 H       1  UNL1        0.0230
    103 H           1.4631    1.0600    0.0000 H       1  UNL1        0.0230
    104 H           1.6900    0.2131    0.0000 H       1  UNL1        0.0230
@<TRIPOS>BOND
     1     1    31    1
     2     1    34    1
     3     2    34    2
     4     3     4    1
     5     3     5    1
     6     3    37    1
     7     3    38    1
     8     4     6    1
     9     4    39    1
    10     4    40    1
    11     5     7    1
    12     5    41    1
    13     5    42    1
    14     6     8    1
    15     6    43    1
    16     6    44    1
    17     7     9    1
    18     7    45    1
    19     7    46    1
    20     8    12    1
    21     8    47    1
    22     8    48    1
    23     9    13    1
    24     9    49    1
    25     9    50    1
    26    10    11    1
    27    10    14    1
    28    10    51    1
    29    10    52    1
    30    11    15    1
    31    11    53    1
    32    11    54    1
    33    12    18    1
    34    12    55    1
    35    12    56    1
    36    13    19    1
    37    13    57    1
    38    13    58    1
    39    14    16    1
    40    14    59    1
    41    14    60    1
    42    15    17    1
    43    15    61    1
    44    15    62    1
    45    16    20    1
    46    16    63    1
    47    16    64    1
    48    17    21    1
    49    17    65    1
    50    17    66    1
    51    18    22    1
    52    18    67    1
    53    18    68    1
    54    19    23    1
    55    19    69    1
    56    19    70    1
    57    20    24    1
    58    20    71    1
    59    20    72    1
    60    21    25    1
    61    21    73    1
    62    21    74    1
    63    22    27    1
    64    22    75    1
    65    22    76    1
    66    23    28    1
    67    23    77    1
    68    23    78    1
    69    24    26    1
    70    24    79    1
    71    24    80    1
    72    25    29    1
    73    25    81    1
    74    25    82    1
    75    26    30    1
    76    26    83    1
    77    26    84    1
    78    27    31    1
    79    27    85    1
    80    27    86    1
    81    28    32    1
    82    28    87    1
    83    28    88    1
    84    29    33    1
    85    29    89    1
    86    29    90    1
    87    30    34    1
    88    30    91    1
    89    30    92    1
    90    31    93    1
    91    31    94    1
    92    32    35    1
    93    32    95    1
    94    32    96    1
    95    33    36    1
    96    33    97    1
    97    33    98    1
    98    35    99    1
    99    35   100    1
   100    35   101    1
   101    36   102    1
   102    36   103    1
   103    36   104    1
