@<TRIPOS>MOLECULE
IMPHY010914
 16 15 0 0 0
SMALL
GASTEIGER

@<TRIPOS>ATOM
      1 O           5.1350    0.0000    0.0000 O.3     1  UNL1       -0.4795
      2 OXT         4.2690    1.5000    0.0000 O.2     1  UNL1       -0.2493
      3 N           2.5369    0.5000    0.0000 N.3     1  UNL1       -0.3184
      4 CA          3.4030    0.0000    0.0000 C.3     1  UNL1        0.1030
      5 C           3.4030   -1.0000    0.0000 C.3     1  UNL1       -0.0302
      6 C           2.5369   -1.5000    0.0000 C.3     1  UNL1       -0.0634
      7 C           4.2690    0.5000    0.0000 C.2     1  UNL1        0.3217
      8 HA          3.4030    0.6200    0.0000 H       1  UNL1        0.0574
      9 H           3.6150   -1.5826    0.0000 H       1  UNL1        0.0283
     10 H           4.0135   -0.8923    0.0000 H       1  UNL1        0.0283
     11 H           2.2269   -0.9631    0.0000 H       1  UNL1        0.0230
     12 H           2.0000   -1.8100    0.0000 H       1  UNL1        0.0230
     13 H           2.8469   -2.0369    0.0000 H       1  UNL1        0.0230
     14 H1          2.0000    0.1900    0.0000 H       1  UNL1        0.1190
     15 H2          2.5369    1.1200    0.0000 H       1  UNL1        0.1190
     16 H           5.6720    0.3100    0.0000 H       1  UNL1        0.2951
@<TRIPOS>BOND
     1     1     7    1
     2     1    16    1
     3     2     7    2
     4     3     4    1
     5     3    14    1
     6     3    15    1
     7     4     5    1
     8     4     7    1
     9     4     8    1
    10     5     6    1
    11     5     9    1
    12     5    10    1
    13     6    11    1
    14     6    12    1
    15     6    13    1
