@<TRIPOS>MOLECULE
IMPHY012900
 73 77 0 0 0
SMALL
GASTEIGER

@<TRIPOS>ATOM
      1 O           6.0124   -2.7890    0.0000 O.3     1  UNL1       -0.3313
      2 O           5.1343    2.7869    0.0000 O.3     1  UNL1       -0.3313
      3 O           7.7444   -2.7890    0.0000 O.3     1  UNL1       -0.4532
      4 O           6.8663    2.7803    0.0000 O.3     1  UNL1       -0.4606
      5 O           6.0124   -5.7890    0.0000 O.3     1  UNL1       -0.3864
      6 O           4.2803   -4.7890    0.0000 O.3     1  UNL1       -0.3865
      7 O           5.1458    5.7869    0.0000 O.3     1  UNL1       -0.3864
      8 O           3.4099    4.7936    0.0000 O.3     1  UNL1       -0.3865
      9 O           7.7444   -4.7890    0.0000 O.3     1  UNL1       -0.3829
     10 O           6.8740    4.7802    0.0000 O.3     1  UNL1       -0.3829
     11 O           3.4143   -3.2890    0.0000 O.3     1  UNL1       -0.3924
     12 O           2.5381    3.2970    0.0000 O.3     1  UNL1       -0.3924
     13 O           8.6104   -0.2890    0.0000 O.2     1  UNL1       -0.4507
     14 O           6.0124   -1.7890    0.0000 O.2     1  UNL1       -0.2830
     15 O           5.1082   -0.2921    0.0000 O.3     1  UNL1       -0.5058
     16 O          12.0745   -3.2890    0.0000 O.3     1  UNL1       -0.5068
     17 C           6.0124   -4.7890    0.0000 C.3     1  UNL1        0.1152
     18 C           5.1463   -4.2890    0.0000 C.3     1  UNL1        0.1120
     19 C           5.1420    4.7869    0.0000 C.3     1  UNL1        0.1152
     20 C           4.2740    4.2903    0.0000 C.3     1  UNL1        0.1120
     21 C           6.8784   -4.2890    0.0000 C.3     1  UNL1        0.1454
     22 C           5.1463   -3.2890    0.0000 C.3     1  UNL1        0.1140
     23 C           6.0061    4.2836    0.0000 C.3     1  UNL1        0.1454
     24 C           4.2702    3.2903    0.0000 C.3     1  UNL1        0.1140
     25 C           6.8784   -3.2890    0.0000 C.3     1  UNL1        0.2311
     26 C           6.0022    3.2836    0.0000 C.3     1  UNL1        0.2308
     27 C           4.2803   -2.7890    0.0000 C.3     1  UNL1        0.0731
     28 C           3.4022    2.7936    0.0000 C.3     1  UNL1        0.0731
     29 C           7.7444   -1.7890    0.0000 C.ar    1  UNL1        0.2138
     30 C           6.8624    1.7803    0.0000 C.ar    1  UNL1        0.1310
     31 C           6.8784   -0.2890    0.0000 C.ar    1  UNL1        0.1092
     32 C           6.8784   -1.2890    0.0000 C.ar    1  UNL1        0.2382
     33 C           8.6104   -1.2890    0.0000 C.ar    1  UNL1        0.1809
     34 C           7.7444    0.2110    0.0000 C.ar    1  UNL1        0.1465
     35 C           7.7605    1.2525    0.0000 C.ar    1  UNL1        0.0235
     36 C           5.9604    1.2595    0.0000 C.ar    1  UNL1        0.0226
     37 C           5.9684    0.2179    0.0000 C.ar    1  UNL1        0.1348
     38 C           9.4765   -1.7890    0.0000 C.ar    1  UNL1        0.0213
     39 C           9.4765   -2.7890    0.0000 C.ar    1  UNL1       -0.0475
     40 C          10.3425   -1.2890    0.0000 C.ar    1  UNL1       -0.0475
     41 C          10.3425   -3.2890    0.0000 C.ar    1  UNL1       -0.0195
     42 C          11.2085   -1.7890    0.0000 C.ar    1  UNL1       -0.0195
     43 C          11.2085   -2.7890    0.0000 C.ar    1  UNL1        0.1169
     44 H           5.4754   -5.0990    0.0000 H       1  UNL1        0.0648
     45 H           5.1463   -4.9090    0.0000 H       1  UNL1        0.0647
     46 H           5.6801    5.0949    0.0000 H       1  UNL1        0.0648
     47 H           4.2764    4.9103    0.0000 H       1  UNL1        0.0647
     48 H           6.8784   -4.9090    0.0000 H       1  UNL1        0.0683
     49 H           5.1463   -2.6690    0.0000 H       1  UNL1        0.0647
     50 H           6.5418    3.9715    0.0000 H       1  UNL1        0.0683
     51 H           4.2678    2.6703    0.0000 H       1  UNL1        0.0647
     52 H           6.8784   -2.6690    0.0000 H       1  UNL1        0.1084
     53 H           5.9998    2.6636    0.0000 H       1  UNL1        0.1084
     54 H           4.6788   -2.3140    0.0000 H       1  UNL1        0.0584
     55 H           3.8818   -2.3140    0.0000 H       1  UNL1        0.0584
     56 H           3.0019    2.3202    0.0000 H       1  UNL1        0.0584
     57 H           3.7989    2.3171    0.0000 H       1  UNL1        0.0584
     58 H           5.4754   -6.0990    0.0000 H       1  UNL1        0.2100
     59 H           4.2803   -5.4090    0.0000 H       1  UNL1        0.2100
     60 H           4.6101    6.0990    0.0000 H       1  UNL1        0.2100
     61 H           3.4123    5.4136    0.0000 H       1  UNL1        0.2100
     62 H           7.7444   -5.4090    0.0000 H       1  UNL1        0.2102
     63 H           6.8764    5.4002    0.0000 H       1  UNL1        0.2102
     64 H           8.3010    1.5563    0.0000 H       1  UNL1        0.0691
     65 H           2.8774   -2.9790    0.0000 H       1  UNL1        0.2095
     66 H           2.0000    2.9890    0.0000 H       1  UNL1        0.2095
     67 H           5.4222    1.5674    0.0000 H       1  UNL1        0.0691
     68 H           8.9395   -3.0990    0.0000 H       1  UNL1        0.0626
     69 H          10.3425   -0.6690    0.0000 H       1  UNL1        0.0626
     70 H           4.5677    0.0116    0.0000 H       1  UNL1        0.2922
     71 H          10.3425   -3.9090    0.0000 H       1  UNL1        0.0654
     72 H          11.7455   -1.4790    0.0000 H       1  UNL1        0.0654
     73 H          12.0745   -3.9090    0.0000 H       1  UNL1        0.2921
@<TRIPOS>BOND
     1     1    22    1
     2     1    25    1
     3     2    24    1
     4     2    26    1
     5    25     3    1
     6     3    29    1
     7    26     4    1
     8     4    30    1
     9    17     5    1
    10     5    58    1
    11    18     6    1
    12     6    59    1
    13    19     7    1
    14     7    60    1
    15    20     8    1
    16     8    61    1
    17    21     9    1
    18     9    62    1
    19    23    10    1
    20    10    63    1
    21    11    27    1
    22    11    65    1
    23    12    28    1
    24    12    66    1
    25    13    33   ar
    26    13    34   ar
    27    14    32    2
    28    15    37    1
    29    15    70    1
    30    16    43    1
    31    16    73    1
    32    17    18    1
    33    17    21    1
    34    17    44    1
    35    18    22    1
    36    18    45    1
    37    19    20    1
    38    19    23    1
    39    19    46    1
    40    20    24    1
    41    20    47    1
    42    21    25    1
    43    21    48    1
    44    22    27    1
    45    22    49    1
    46    23    26    1
    47    23    50    1
    48    24    28    1
    49    24    51    1
    50    25    52    1
    51    26    53    1
    52    27    54    1
    53    27    55    1
    54    28    56    1
    55    28    57    1
    56    29    32   ar
    57    29    33   ar
    58    30    35   ar
    59    30    36   ar
    60    31    32   ar
    61    31    34   ar
    62    31    37   ar
    63    33    38    1
    64    34    35   ar
    65    35    64    1
    66    36    37   ar
    67    36    67    1
    68    38    39   ar
    69    38    40   ar
    70    39    41   ar
    71    39    68    1
    72    40    42   ar
    73    40    69    1
    74    41    43   ar
    75    41    71    1
    76    42    43   ar
    77    42    72    1
