@<TRIPOS>MOLECULE
IMPHY003041
 95 96 0 0 0
SMALL
GASTEIGER

@<TRIPOS>ATOM
      1 O           8.0622   -1.9127    0.0000 O.2     1  UNL1       -0.5029
      2 O           8.9838    3.3139    0.0000 O.2     1  UNL1       -0.5029
      3 O           4.5981    0.0873    0.0000 O.2     1  UNL1       -0.5029
      4 O           5.0446    2.6194    0.0000 O.2     1  UNL1       -0.5029
      5 O           4.5981   -1.9127    0.0000 O.2     1  UNL1       -0.2836
      6 O           5.7286    4.4987    0.0000 O.2     1  UNL1       -0.2836
      7 O           8.0622    0.0873    0.0000 O.2     1  UNL1       -0.2836
      8 O           8.2997    1.4346    0.0000 O.2     1  UNL1       -0.2836
      9 C           4.5981   -5.9127    0.0000 C.3     1  UNL1       -0.0531
     10 C          10.3519    7.0727    0.0000 C.3     1  UNL1       -0.0531
     11 C           4.5981   -4.9127    0.0000 C.3     1  UNL1       -0.0530
     12 C          10.0098    6.1330    0.0000 C.3     1  UNL1       -0.0530
     13 C           3.7320   -6.4127    0.0000 C.3     1  UNL1       -0.0531
     14 C          11.3367    7.2464    0.0000 C.3     1  UNL1       -0.0531
     15 C           5.4641   -4.4127    0.0000 C.3     1  UNL1       -0.0528
     16 C           9.0250    5.9594    0.0000 C.3     1  UNL1       -0.0528
     17 C           3.7320   -7.4127    0.0000 C.3     1  UNL1       -0.0531
     18 C          11.6787    8.1861    0.0000 C.3     1  UNL1       -0.0531
     19 C           5.4641   -3.4127    0.0000 C.3     1  UNL1       -0.0488
     20 C           8.6830    5.0197    0.0000 C.3     1  UNL1       -0.0488
     21 C           2.8660   -7.9127    0.0000 C.3     1  UNL1       -0.0531
     22 C          12.6635    8.3597    0.0000 C.3     1  UNL1       -0.0531
     23 C           6.3301   -2.9127    0.0000 C.3     1  UNL1       -0.0203
     24 C           7.6982    4.8460    0.0000 C.3     1  UNL1       -0.0203
     25 C           2.8660   -8.9127    0.0000 C.3     1  UNL1       -0.0533
     26 C          13.0055    9.2994    0.0000 C.3     1  UNL1       -0.0533
     27 C           6.3301   -1.9127    0.0000 C.2     1  UNL1        0.0481
     28 C           7.3562    3.9063    0.0000 C.2     1  UNL1        0.0481
     29 C           2.0000   -9.4127    0.0000 C.3     1  UNL1       -0.0559
     30 C          13.9903    9.4730    0.0000 C.3     1  UNL1       -0.0559
     31 C           6.3301    1.0873    0.0000 C.3     1  UNL1        0.0123
     32 C           6.3301    0.0873    0.0000 C.2     1  UNL1        0.0526
     33 C           6.6722    2.0270    0.0000 C.2     1  UNL1        0.0526
     34 C           7.1962   -1.4127    0.0000 C.2     1  UNL1        0.1710
     35 C           7.9990    3.1403    0.0000 C.2     1  UNL1        0.1710
     36 C           5.4641   -1.4127    0.0000 C.2     1  UNL1        0.2271
     37 C           6.3714    3.7327    0.0000 C.2     1  UNL1        0.2271
     38 C           5.4641   -0.4127    0.0000 C.2     1  UNL1        0.1713
     39 C           6.0294    2.7930    0.0000 C.2     1  UNL1        0.1713
     40 C           7.1962   -0.4127    0.0000 C.2     1  UNL1        0.2275
     41 C           7.6570    2.2006    0.0000 C.2     1  UNL1        0.2275
     42 C           2.0000  -10.4127    0.0000 C.3     1  UNL1       -0.0653
     43 C          14.3323   10.4127    0.0000 C.3     1  UNL1       -0.0653
     44 H          10.3519    7.6927    0.0000 H       1  UNL1        0.0265
     45 H           9.7413    7.1804    0.0000 H       1  UNL1        0.0265
     46 H           4.8101   -6.4954    0.0000 H       1  UNL1        0.0265
     47 H           5.2087   -5.8051    0.0000 H       1  UNL1        0.0265
     48 H          10.0098    5.5130    0.0000 H       1  UNL1        0.0265
     49 H          10.6204    6.0254    0.0000 H       1  UNL1        0.0265
     50 H           4.3860   -4.3301    0.0000 H       1  UNL1        0.0265
     51 H           3.9875   -5.0204    0.0000 H       1  UNL1        0.0265
     52 H          11.3367    6.6264    0.0000 H       1  UNL1        0.0265
     53 H          11.9473    7.1387    0.0000 H       1  UNL1        0.0265
     54 H           3.5200   -5.8301    0.0000 H       1  UNL1        0.0265
     55 H           3.1215   -6.5204    0.0000 H       1  UNL1        0.0265
     56 H           9.0250    6.5794    0.0000 H       1  UNL1        0.0265
     57 H           8.4145    6.0670    0.0000 H       1  UNL1        0.0265
     58 H           5.6762   -4.9954    0.0000 H       1  UNL1        0.0265
     59 H           6.0747   -4.3051    0.0000 H       1  UNL1        0.0265
     60 H          11.6787    8.8061    0.0000 H       1  UNL1        0.0265
     61 H          11.0681    8.2937    0.0000 H       1  UNL1        0.0265
     62 H           3.9441   -7.9954    0.0000 H       1  UNL1        0.0265
     63 H           4.3426   -7.3051    0.0000 H       1  UNL1        0.0265
     64 H           5.2520   -2.8301    0.0000 H       1  UNL1        0.0268
     65 H           4.8535   -3.5204    0.0000 H       1  UNL1        0.0268
     66 H           8.6830    4.3997    0.0000 H       1  UNL1        0.0268
     67 H           9.2936    4.9120    0.0000 H       1  UNL1        0.0268
     68 H          12.6635    7.7397    0.0000 H       1  UNL1        0.0265
     69 H          13.2741    8.2520    0.0000 H       1  UNL1        0.0265
     70 H           2.6540   -7.3301    0.0000 H       1  UNL1        0.0265
     71 H           2.2554   -8.0204    0.0000 H       1  UNL1        0.0265
     72 H           7.6982    5.4660    0.0000 H       1  UNL1        0.0316
     73 H           7.0876    4.9537    0.0000 H       1  UNL1        0.0316
     74 H           6.5422   -3.4954    0.0000 H       1  UNL1        0.0316
     75 H           6.9407   -2.8051    0.0000 H       1  UNL1        0.0316
     76 H           3.0781   -9.4954    0.0000 H       1  UNL1        0.0265
     77 H           3.4766   -8.8051    0.0000 H       1  UNL1        0.0265
     78 H          13.0055    9.9194    0.0000 H       1  UNL1        0.0265
     79 H          12.3949    9.4071    0.0000 H       1  UNL1        0.0265
     80 H          13.9903    8.8530    0.0000 H       1  UNL1        0.0263
     81 H          14.6009    9.3654    0.0000 H       1  UNL1        0.0263
     82 H           1.7880   -8.8301    0.0000 H       1  UNL1        0.0263
     83 H           1.3894   -9.5204    0.0000 H       1  UNL1        0.0263
     84 H           5.8792    1.5127    0.0000 H       1  UNL1        0.0366
     85 H           6.9407    0.9796    0.0000 H       1  UNL1        0.0366
     86 H          14.9150   10.2007    0.0000 H       1  UNL1        0.0230
     87 H          14.5444   10.9953    0.0000 H       1  UNL1        0.0230
     88 H          13.7497   10.6248    0.0000 H       1  UNL1        0.0230
     89 H           1.3800  -10.4127    0.0000 H       1  UNL1        0.0230
     90 H           2.0000  -11.0327    0.0000 H       1  UNL1        0.0230
     91 H           2.6200  -10.4127    0.0000 H       1  UNL1        0.0230
     92 H           8.0622   -2.5327    0.0000 H       1  UNL1        0.2923
     93 H           9.3823    2.8390    0.0000 H       1  UNL1        0.2923
     94 H           4.0611   -0.2227    0.0000 H       1  UNL1        0.2923
     95 H           4.6460    3.0943    0.0000 H       1  UNL1        0.2923
@<TRIPOS>BOND
     1     1    34    1
     2     1    92    1
     3     2    35    1
     4     2    93    1
     5     3    38    1
     6     3    94    1
     7     4    39    1
     8     4    95    1
     9     5    36    2
    10     6    37    2
    11     7    40    2
    12     8    41    2
    13     9    11    1
    14     9    13    1
    15     9    46    1
    16     9    47    1
    17    10    12    1
    18    10    14    1
    19    10    44    1
    20    10    45    1
    21    11    15    1
    22    11    50    1
    23    11    51    1
    24    12    16    1
    25    12    48    1
    26    12    49    1
    27    13    17    1
    28    13    54    1
    29    13    55    1
    30    14    18    1
    31    14    52    1
    32    14    53    1
    33    15    19    1
    34    15    58    1
    35    15    59    1
    36    16    20    1
    37    16    56    1
    38    16    57    1
    39    17    21    1
    40    17    62    1
    41    17    63    1
    42    18    22    1
    43    18    60    1
    44    18    61    1
    45    19    23    1
    46    19    64    1
    47    19    65    1
    48    20    24    1
    49    20    66    1
    50    20    67    1
    51    21    25    1
    52    21    70    1
    53    21    71    1
    54    22    26    1
    55    22    68    1
    56    22    69    1
    57    23    27    1
    58    23    74    1
    59    23    75    1
    60    24    28    1
    61    24    72    1
    62    24    73    1
    63    25    29    1
    64    25    76    1
    65    25    77    1
    66    26    30    1
    67    26    78    1
    68    26    79    1
    69    27    34    2
    70    27    36    1
    71    28    35    2
    72    28    37    1
    73    29    42    1
    74    29    82    1
    75    29    83    1
    76    30    43    1
    77    30    80    1
    78    30    81    1
    79    31    32    1
    80    31    33    1
    81    31    84    1
    82    31    85    1
    83    32    38    2
    84    32    40    1
    85    33    39    2
    86    33    41    1
    87    34    40    1
    88    35    41    1
    89    36    38    1
    90    37    39    1
    91    42    89    1
    92    42    90    1
    93    42    91    1
    94    43    86    1
    95    43    87    1
    96    43    88    1
