@<TRIPOS>MOLECULE
IMPHY006239
 48 52 0 0 0
SMALL
GASTEIGER

@<TRIPOS>ATOM
      1 O           7.4225   -2.6234    0.0000 O.co2   1  UNL1       -0.7746
      2 O           8.0496    0.3178    0.0000 O.2     1  UNL1       -0.2895
      3 O           2.8022    0.4188    0.0000 O.3     1  UNL1       -0.4666
      4 O           3.8364    1.8082    0.0000 O.2     1  UNL1       -0.2487
      5 N           6.8203   -1.8251    0.0000 N.3     1  UNL1        0.2243
      6 N           5.4805    0.6268    0.0000 N.pl3   1  UNL1       -0.2980
      7 C           6.2895    0.0390    0.0000 C.3     1  UNL1        0.1461
      8 C           6.1966   -0.9985    0.0000 C.3     1  UNL1        0.0088
      9 C           5.2484   -1.4295    0.0000 C.3     1  UNL1        0.0016
     10 C           4.4057   -0.8172    0.0000 C.3     1  UNL1        0.0191
     11 C           7.2783   -0.2683    0.0000 C.3     1  UNL1        0.0215
     12 C           7.5466   -1.3964    0.0000 C.3     1  UNL1       -0.0294
     13 C           4.5225    0.2178    0.0000 C.3     1  UNL1        0.1287
     14 C           5.8465   -2.0629    0.0000 C.3     1  UNL1       -0.0101
     15 C           4.9214   -1.6767    0.0000 C.2     1  UNL1       -0.0239
     16 C           7.0986    0.6268    0.0000 C.2     1  UNL1        0.1939
     17 C           5.7895    1.5778    0.0000 C.ar    1  UNL1        0.0420
     18 C           6.7895    1.5778    0.0000 C.ar    1  UNL1        0.0408
     19 C           3.7204    0.8149    0.0000 C.2     1  UNL1        0.3281
     20 C           4.2674   -2.4332    0.0000 C.2     1  UNL1       -0.0825
     21 C           5.2549    2.4718    0.0000 C.ar    1  UNL1       -0.0399
     22 C           7.3242    2.4718    0.0000 C.ar    1  UNL1       -0.0494
     23 C           4.5955   -3.3778    0.0000 C.3     1  UNL1       -0.0464
     24 C           5.7687    3.3778    0.0000 C.ar    1  UNL1       -0.0600
     25 C           6.8104    3.3778    0.0000 C.ar    1  UNL1       -0.0610
     26 C           2.0000    1.0159    0.0000 C.3     1  UNL1        0.0817
     27 H           5.6909   -0.6399    0.0000 H       1  UNL1        0.0876
     28 H           4.8035   -1.8613    0.0000 H       1  UNL1        0.0327
     29 H           5.5977   -1.9417    0.0000 H       1  UNL1        0.0327
     30 H           3.7998   -0.9489    0.0000 H       1  UNL1        0.0373
     31 H           7.8974   -0.2341    0.0000 H       1  UNL1        0.0344
     32 H           7.3545    0.3470    0.0000 H       1  UNL1        0.0344
     33 H           7.8069   -1.9591    0.0000 H       1  UNL1        0.0814
     34 H           8.1324   -1.1935    0.0000 H       1  UNL1        0.0814
     35 H           4.5956    0.8335    0.0000 H       1  UNL1        0.0622
     36 H           5.4436   -2.5341    0.0000 H       1  UNL1        0.0863
     37 H           6.1713   -2.5910    0.0000 H       1  UNL1        0.0863
     38 H           3.6585   -2.3166    0.0000 H       1  UNL1        0.0571
     39 H           4.6349    2.4646    0.0000 H       1  UNL1        0.0636
     40 H           7.9442    2.4646    0.0000 H       1  UNL1        0.0625
     41 H           4.0099   -3.5813    0.0000 H       1  UNL1        0.0272
     42 H           4.7990   -3.9635    0.0000 H       1  UNL1        0.0272
     43 H           5.1812   -3.1744    0.0000 H       1  UNL1        0.0272
     44 H           5.4566    3.9136    0.0000 H       1  UNL1        0.0618
     45 H           7.1224    3.9136    0.0000 H       1  UNL1        0.0618
     46 H           2.3702    1.5132    0.0000 H       1  UNL1        0.0661
     47 H           1.5027    1.3861    0.0000 H       1  UNL1        0.0661
     48 H           1.6298    0.5186    0.0000 H       1  UNL1        0.0661
@<TRIPOS>UNITY_ATOM_ATTR
1 1
charge -1
5 1
charge 1
@<TRIPOS>BOND
     1     1     5    1
     2     2    16    2
     3     3    19    1
     4     3    26    1
     5     4    19    2
     6     5     8    1
     7     5    12    1
     8     5    14    1
     9     6     7    1
    10     6    13    1
    11     6    17    1
    12     7     8    1
    13     7    11    1
    14     7    16    1
    15     8     9    1
    16     8    27    1
    17     9    10    1
    18     9    28    1
    19     9    29    1
    20    10    13    1
    21    10    15    1
    22    10    30    1
    23    11    12    1
    24    11    31    1
    25    11    32    1
    26    12    33    1
    27    12    34    1
    28    13    19    1
    29    13    35    1
    30    14    15    1
    31    14    36    1
    32    14    37    1
    33    15    20    2
    34    16    18    1
    35    17    18   ar
    36    17    21   ar
    37    18    22   ar
    38    20    23    1
    39    20    38    1
    40    21    24   ar
    41    21    39    1
    42    22    25   ar
    43    22    40    1
    44    23    41    1
    45    23    42    1
    46    23    43    1
    47    24    25   ar
    48    24    44    1
    49    25    45    1
    50    26    46    1
    51    26    47    1
    52    26    48    1
