@<TRIPOS>MOLECULE
IMPHY012979
 59 62 0 0 0
SMALL
GASTEIGER

@<TRIPOS>ATOM
      1 O           8.8462    2.8359    0.0000 O.2     1  UNL1       -0.2974
      2 N           2.8641   -2.2160    0.0000 N.3     1  UNL1       -0.3159
      3 C           8.2572    0.8364    0.0000 C.3     1  UNL1       -0.0195
      4 C           8.2572   -0.1636    0.0000 C.3     1  UNL1       -0.0316
      5 C           7.3912   -0.6636    0.0000 C.3     1  UNL1       -0.0306
      6 C           6.5251   -0.1636    0.0000 C.3     1  UNL1       -0.0285
      7 C           5.6151   -0.6705    0.0000 C.3     1  UNL1       -0.0079
      8 C           7.3912    1.3364    0.0000 C.3     1  UNL1       -0.0464
      9 C           9.2034    1.1411    0.0000 C.3     1  UNL1        0.0229
     10 C           6.5251    0.8364    0.0000 C.3     1  UNL1       -0.0486
     11 C           9.2034   -0.4683    0.0000 C.3     1  UNL1       -0.0488
     12 C           9.7870    0.3364    0.0000 C.3     1  UNL1       -0.0427
     13 C           7.4072   -1.7051    0.0000 C.3     1  UNL1       -0.0311
     14 C           5.6071   -1.7121    0.0000 C.2     1  UNL1       -0.0658
     15 C           8.2572    1.8364    0.0000 C.3     1  UNL1       -0.0587
     16 C           4.6883   -0.1064    0.0000 C.3     1  UNL1       -0.0422
     17 C           6.5092   -2.2329    0.0000 C.2     1  UNL1       -0.0839
     18 C           5.6228    0.3295    0.0000 C.3     1  UNL1       -0.0556
     19 C           4.6717   -2.2618    0.0000 C.3     1  UNL1       -0.0158
     20 C           3.7404   -0.6343    0.0000 C.3     1  UNL1       -0.0365
     21 C           9.5141    2.0916    0.0000 C.2     1  UNL1        0.1339
     22 C           3.7320   -1.7193    0.0000 C.3     1  UNL1        0.0111
     23 C          10.4926    2.2979    0.0000 C.3     1  UNL1       -0.0058
     24 C           2.0000   -1.7126    0.0000 C.3     1  UNL1       -0.0155
     25 H           8.3471   -1.0088    0.0000 H       1  UNL1        0.0309
     26 H           8.1305   -1.0829    0.0000 H       1  UNL1        0.0309
     27 H           7.2612    0.2614    0.0000 H       1  UNL1        0.0312
     28 H           7.7897    1.8113    0.0000 H       1  UNL1        0.0271
     29 H           6.9926    1.8113    0.0000 H       1  UNL1        0.0271
     30 H           9.8159    1.2373    0.0000 H       1  UNL1        0.0383
     31 H           6.3131    1.4190    0.0000 H       1  UNL1        0.0268
     32 H           5.9145    0.7287    0.0000 H       1  UNL1        0.0268
     33 H           8.9524   -1.0352    0.0000 H       1  UNL1        0.0268
     34 H           9.7408   -0.7776    0.0000 H       1  UNL1        0.0268
     35 H          10.2479   -0.0783    0.0000 H       1  UNL1        0.0272
     36 H          10.2479    0.7511    0.0000 H       1  UNL1        0.0272
     37 H           7.6252   -2.2855    0.0000 H       1  UNL1        0.0310
     38 H           8.0164   -1.5896    0.0000 H       1  UNL1        0.0310
     39 H           8.8772    1.8364    0.0000 H       1  UNL1        0.0235
     40 H           8.2572    2.4564    0.0000 H       1  UNL1        0.0235
     41 H           7.6372    1.8364    0.0000 H       1  UNL1        0.0235
     42 H           5.0965    0.3603    0.0000 H       1  UNL1        0.0274
     43 H           4.2984    0.3757    0.0000 H       1  UNL1        0.0274
     44 H           6.5116   -2.8529    0.0000 H       1  UNL1        0.0572
     45 H           6.2428    0.3247    0.0000 H       1  UNL1        0.0238
     46 H           5.6276    0.9495    0.0000 H       1  UNL1        0.0238
     47 H           5.0028    0.3343    0.0000 H       1  UNL1        0.0238
     48 H           4.2744   -2.7378    0.0000 H       1  UNL1        0.0325
     49 H           5.0726   -2.7347    0.0000 H       1  UNL1        0.0325
     50 H           3.5358   -0.0490    0.0000 H       1  UNL1        0.0281
     51 H           3.1288   -0.7357    0.0000 H       1  UNL1        0.0281
     52 H           3.7308   -2.3393    0.0000 H       1  UNL1        0.0463
     53 H          10.6204    1.6912    0.0000 H       1  UNL1        0.0306
     54 H          11.0992    2.4257    0.0000 H       1  UNL1        0.0306
     55 H          10.3647    2.9045    0.0000 H       1  UNL1        0.0306
     56 H           2.8617   -2.8359    0.0000 H       1  UNL1        0.1219
     57 H           2.3121   -1.1769    0.0000 H       1  UNL1        0.0388
     58 H           1.4643   -1.4005    0.0000 H       1  UNL1        0.0388
     59 H           1.6879   -2.2484    0.0000 H       1  UNL1        0.0388
@<TRIPOS>BOND
     1     1    21    2
     2    22     2    1
     3     2    24    1
     4     2    56    1
     5     3     4    1
     6     3     8    1
     7     3     9    1
     8     3    15    1
     9     4     5    1
    10     4    11    1
    11     4    25    1
    12     5     6    1
    13     5    13    1
    14     5    26    1
    15     6     7    1
    16     6    10    1
    17     6    27    1
    18     7    14    1
    19     7    16    1
    20     7    18    1
    21     8    10    1
    22     8    28    1
    23     8    29    1
    24     9    12    1
    25     9    21    1
    26     9    30    1
    27    10    31    1
    28    10    32    1
    29    11    12    1
    30    11    33    1
    31    11    34    1
    32    12    35    1
    33    12    36    1
    34    13    17    1
    35    13    37    1
    36    13    38    1
    37    14    17    2
    38    14    19    1
    39    15    39    1
    40    15    40    1
    41    15    41    1
    42    16    20    1
    43    16    42    1
    44    16    43    1
    45    17    44    1
    46    18    45    1
    47    18    46    1
    48    18    47    1
    49    19    22    1
    50    19    48    1
    51    19    49    1
    52    20    22    1
    53    20    50    1
    54    20    51    1
    55    21    23    1
    56    22    52    1
    57    23    53    1
    58    23    54    1
    59    23    55    1
    60    24    57    1
    61    24    58    1
    62    24    59    1
