@<TRIPOS>MOLECULE
IMPHY007707
 81 86 0 0 0
SMALL
GASTEIGER

@<TRIPOS>ATOM
      1 O           3.5204    3.1544    0.0000 O.3     1  UNL1       -0.3688
      2 C           3.9025    1.1129    0.0000 C.3     1  UNL1        0.0006
      3 C           3.8864    2.1544    0.0000 C.3     1  UNL1        0.0790
      4 C           3.0044    0.5852    0.0000 C.3     1  UNL1       -0.0271
      5 C           2.9961   -0.4998    0.0000 C.3     1  UNL1       -0.0230
      6 C           3.9357   -1.0423    0.0000 C.3     1  UNL1       -0.0230
      7 C           3.0204    2.6544    0.0000 C.3     1  UNL1       -0.0038
      8 C           3.9531   -2.1723    0.0000 C.3     1  UNL1       -0.0292
      9 C           4.8544    0.5923    0.0000 C.3     1  UNL1       -0.0442
     10 C           3.0204    3.6544    0.0000 C.3     1  UNL1       -0.0032
     11 C           4.8711   -0.4926    0.0000 C.3     1  UNL1       -0.0463
     12 C           2.1023    1.1060    0.0000 C.3     1  UNL1       -0.0488
     13 C           3.8864    4.1544    0.0000 C.3     1  UNL1        0.0650
     14 C           2.9787   -2.7449    0.0000 C.3     1  UNL1       -0.0287
     15 C           4.7524    2.6544    0.0000 C.3     1  UNL1       -0.0206
     16 C           2.1104    2.1476    0.0000 C.3     1  UNL1       -0.0467
     17 C           2.0087   -1.0497    0.0000 C.3     1  UNL1       -0.0463
     18 C           4.7524    3.6544    0.0000 C.3     1  UNL1       -0.0234
     19 C           2.0000   -2.1798    0.0000 C.3     1  UNL1       -0.0468
     20 C           4.7646    1.6196    0.0000 C.3     1  UNL1       -0.0567
     21 C           2.1300    0.0002    0.0000 C.3     1  UNL1       -0.0588
     22 C           4.9860   -2.7372    0.0000 C.3     1  UNL1       -0.0440
     23 C           4.8017   -1.5423    0.0000 C.3     1  UNL1       -0.0588
     24 C           2.9697   -3.9221    0.0000 C.3     1  UNL1       -0.0469
     25 C           5.0041   -3.9143    0.0000 C.3     1  UNL1       -0.0346
     26 C           2.6136    4.5680    0.0000 C.3     1  UNL1       -0.0571
     27 C           2.0258    3.5499    0.0000 C.3     1  UNL1       -0.0571
     28 C           3.9892   -4.5107    0.0000 C.3     1  UNL1       -0.0474
     29 C           2.1166   -3.2516    0.0000 C.3     1  UNL1       -0.0593
     30 C           5.5141   -4.7744    0.0000 C.3     1  UNL1       -0.0598
     31 C           6.0040   -3.9027    0.0000 C.3     1  UNL1       -0.0598
     32 H           2.2667    0.1630    0.0000 H       1  UNL1        0.0312
     33 H           2.2842    3.0794    0.0000 H       1  UNL1        0.0335
     34 H           4.6809   -1.7332    0.0000 H       1  UNL1        0.0312
     35 H           5.4668    0.4956    0.0000 H       1  UNL1        0.0272
     36 H           5.0544    1.1792    0.0000 H       1  UNL1        0.0272
     37 H           5.0891   -1.0730    0.0000 H       1  UNL1        0.0271
     38 H           5.4803   -0.3771    0.0000 H       1  UNL1        0.0271
     39 H           1.4923    1.2168    0.0000 H       1  UNL1        0.0268
     40 H           1.8888    0.5239    0.0000 H       1  UNL1        0.0268
     41 H           3.8864    5.0044    0.0000 H       1  UNL1        0.0601
     42 H           4.9645    2.0718    0.0000 H       1  UNL1        0.0294
     43 H           5.3630    2.7621    0.0000 H       1  UNL1        0.0294
     44 H           1.9058    2.7329    0.0000 H       1  UNL1        0.0269
     45 H           1.4987    2.0462    0.0000 H       1  UNL1        0.0269
     46 H           1.8042   -0.4644    0.0000 H       1  UNL1        0.0271
     47 H           1.3971   -1.1511    0.0000 H       1  UNL1        0.0271
     48 H           5.3630    3.5468    0.0000 H       1  UNL1        0.0291
     49 H           4.9645    4.2370    0.0000 H       1  UNL1        0.0291
     50 H           1.3900   -2.0690    0.0000 H       1  UNL1        0.0271
     51 H           1.7864   -2.7619    0.0000 H       1  UNL1        0.0271
     52 H           5.0787    1.0851    0.0000 H       1  UNL1        0.0236
     53 H           5.2991    1.9337    0.0000 H       1  UNL1        0.0236
     54 H           4.4505    2.1541    0.0000 H       1  UNL1        0.0236
     55 H           2.4400    0.5372    0.0000 H       1  UNL1        0.0235
     56 H           1.5931    0.3102    0.0000 H       1  UNL1        0.0235
     57 H           1.8200   -0.5367    0.0000 H       1  UNL1        0.0235
     58 H           5.5984   -2.8338    0.0000 H       1  UNL1        0.0273
     59 H           5.1860   -2.1503    0.0000 H       1  UNL1        0.0273
     60 H           4.4917   -2.0792    0.0000 H       1  UNL1        0.0235
     61 H           5.3386   -1.8523    0.0000 H       1  UNL1        0.0235
     62 H           5.1117   -1.0053    0.0000 H       1  UNL1        0.0235
     63 H           2.3597   -3.8113    0.0000 H       1  UNL1        0.0271
     64 H           2.7561   -4.5042    0.0000 H       1  UNL1        0.0271
     65 H           3.1800    4.8202    0.0000 H       1  UNL1        0.0236
     66 H           2.3615    5.1344    0.0000 H       1  UNL1        0.0236
     67 H           2.0472    4.3158    0.0000 H       1  UNL1        0.0236
     68 H           1.9610    4.1665    0.0000 H       1  UNL1        0.0236
     69 H           1.4092    3.4851    0.0000 H       1  UNL1        0.0236
     70 H           2.0907    2.9333    0.0000 H       1  UNL1        0.0236
     71 H           3.5919   -4.9867    0.0000 H       1  UNL1        0.0271
     72 H           4.3901   -4.9836    0.0000 H       1  UNL1        0.0271
     73 H           1.8025   -2.7170    0.0000 H       1  UNL1        0.0235
     74 H           1.5821   -3.5657    0.0000 H       1  UNL1        0.0235
     75 H           2.4307   -3.7861    0.0000 H       1  UNL1        0.0235
     76 H           4.9808   -5.0906    0.0000 H       1  UNL1        0.0235
     77 H           5.8303   -5.3078    0.0000 H       1  UNL1        0.0235
     78 H           6.0474   -4.4582    0.0000 H       1  UNL1        0.0235
     79 H           6.0112   -4.5226    0.0000 H       1  UNL1        0.0235
     80 H           6.6240   -3.8955    0.0000 H       1  UNL1        0.0235
     81 H           5.9969   -3.2827    0.0000 H       1  UNL1        0.0235
@<TRIPOS>BOND
     1     3     1    1
     2     1    13    1
     3     2     3    1
     4     2     4    1
     5     2     9    1
     6     2    20    1
     7     3     7    1
     8     3    15    1
     9     4     5    1
    10     4    12    1
    11     4    32    1
    12     5     6    1
    13     5    17    1
    14     5    21    1
    15     6     8    1
    16     6    11    1
    17     6    23    1
    18     7    10    1
    19     7    16    1
    20     7    33    1
    21     8    14    1
    22     8    22    1
    23     8    34    1
    24     9    11    1
    25     9    35    1
    26     9    36    1
    27    10    13    1
    28    10    26    1
    29    10    27    1
    30    11    37    1
    31    11    38    1
    32    12    16    1
    33    12    39    1
    34    12    40    1
    35    13    18    1
    36    13    41    1
    37    14    19    1
    38    14    24    1
    39    14    29    1
    40    15    18    1
    41    15    42    1
    42    15    43    1
    43    16    44    1
    44    16    45    1
    45    17    19    1
    46    17    46    1
    47    17    47    1
    48    18    48    1
    49    18    49    1
    50    19    50    1
    51    19    51    1
    52    20    52    1
    53    20    53    1
    54    20    54    1
    55    21    55    1
    56    21    56    1
    57    21    57    1
    58    22    25    1
    59    22    58    1
    60    22    59    1
    61    23    60    1
    62    23    61    1
    63    23    62    1
    64    24    28    1
    65    24    63    1
    66    24    64    1
    67    25    28    1
    68    25    30    1
    69    25    31    1
    70    26    65    1
    71    26    66    1
    72    26    67    1
    73    27    68    1
    74    27    69    1
    75    27    70    1
    76    28    71    1
    77    28    72    1
    78    29    73    1
    79    29    74    1
    80    29    75    1
    81    30    76    1
    82    30    77    1
    83    30    78    1
    84    31    79    1
    85    31    80    1
    86    31    81    1
