@<TRIPOS>MOLECULE
IMPHY006442
 43 46 0 0 0
SMALL
GASTEIGER

@<TRIPOS>ATOM
      1 O           2.0520    1.7320    0.0000 O.2     1  UNL1       -0.2970
      2 N           3.8001   -1.3095    0.0000 N.3     1  UNL1       -0.2957
      3 C           3.7841   -0.2680    0.0000 C.3     1  UNL1        0.0347
      4 C           4.6501    0.2320    0.0000 C.3     1  UNL1       -0.0186
      5 C           4.6501    1.2320    0.0000 C.3     1  UNL1       -0.0296
      6 C           2.9180    0.2320    0.0000 C.3     1  UNL1        0.0362
      7 C           3.5810    0.1019    0.0000 C.3     1  UNL1       -0.0309
      8 C           3.4973    0.8976    0.0000 C.3     1  UNL1       -0.0419
      9 C           4.2282    1.2229    0.0000 C.3     1  UNL1       -0.0469
     10 C           5.5599   -0.2560    0.0000 C.3     1  UNL1       -0.0471
     11 C           3.7841    1.7320    0.0000 C.3     1  UNL1        0.0093
     12 C           2.0080   -0.2748    0.0000 C.3     1  UNL1       -0.0406
     13 C           2.9180    1.2320    0.0000 C.2     1  UNL1        0.1384
     14 C           4.6984   -1.8184    0.0000 C.3     1  UNL1       -0.0005
     15 C           2.9021   -1.8372    0.0000 C.3     1  UNL1       -0.0005
     16 C           5.5842   -1.2881    0.0000 C.3     1  UNL1       -0.0399
     17 C           2.0000   -1.3164    0.0000 C.3     1  UNL1       -0.0395
     18 C           3.1553    1.8372    0.0000 C.3     1  UNL1       -0.0623
     19 H           5.4488    0.5227    0.0000 H       1  UNL1        0.0322
     20 H           5.0751    1.9681    0.0000 H       1  UNL1        0.0308
     21 H           2.1819    0.6570    0.0000 H       1  UNL1        0.0396
     22 H           2.9862    0.2771    0.0000 H       1  UNL1        0.0286
     23 H           4.1726    0.2872    0.0000 H       1  UNL1        0.0286
     24 H           2.8932    0.7581    0.0000 H       1  UNL1        0.0299
     25 H           4.4522    1.8011    0.0000 H       1  UNL1        0.0271
     26 H           4.3636    0.6179    0.0000 H       1  UNL1        0.0271
     27 H           6.1730   -0.3477    0.0000 H       1  UNL1        0.0269
     28 H           5.7551    0.3325    0.0000 H       1  UNL1        0.0269
     29 H           4.1826    2.2070    0.0000 H       1  UNL1        0.0344
     30 H           3.3855    2.2070    0.0000 H       1  UNL1        0.0344
     31 H           1.8035    0.3105    0.0000 H       1  UNL1        0.0273
     32 H           1.3964   -0.3762    0.0000 H       1  UNL1        0.0273
     33 H           4.3050   -2.2976    0.0000 H       1  UNL1        0.0427
     34 H           5.1032   -2.2880    0.0000 H       1  UNL1        0.0427
     35 H           2.5048   -2.3132    0.0000 H       1  UNL1        0.0427
     36 H           3.3030   -2.3101    0.0000 H       1  UNL1        0.0427
     37 H           5.8069   -1.8667    0.0000 H       1  UNL1        0.0278
     38 H           6.1924   -1.1677    0.0000 H       1  UNL1        0.0278
     39 H           1.3900   -1.2056    0.0000 H       1  UNL1        0.0278
     40 H           1.7864   -1.8985    0.0000 H       1  UNL1        0.0278
     41 H           3.7379    2.0493    0.0000 H       1  UNL1        0.0232
     42 H           2.9433    2.4198    0.0000 H       1  UNL1        0.0232
     43 H           2.5727    1.6252    0.0000 H       1  UNL1        0.0232
@<TRIPOS>BOND
     1     1    13    2
     2     3     2    1
     3     2    14    1
     4     2    15    1
     5     3     4    1
     6     3     6    1
     7     3     7    1
     8     4     5    1
     9     4    10    1
    10     4    19    1
    11     5     9    1
    12     5    11    1
    13     5    20    1
    14     6    12    1
    15     6    13    1
    16     6    21    1
    17     7     8    1
    18     7    22    1
    19     7    23    1
    20     8     9    1
    21     8    18    1
    22     8    24    1
    23     9    25    1
    24     9    26    1
    25    10    16    1
    26    10    27    1
    27    10    28    1
    28    11    13    1
    29    11    29    1
    30    11    30    1
    31    12    17    1
    32    12    31    1
    33    12    32    1
    34    14    16    1
    35    14    33    1
    36    14    34    1
    37    15    17    1
    38    15    35    1
    39    15    36    1
    40    16    37    1
    41    16    38    1
    42    17    39    1
    43    17    40    1
    44    18    41    1
    45    18    42    1
    46    18    43    1
