@<TRIPOS>MOLECULE
IMPHY002220
 78 82 0 0 0
SMALL
GASTEIGER

@<TRIPOS>ATOM
      1 O           6.8137    0.9405    0.0000 O.3     1  UNL1       -0.3585
      2 O           7.4414   -1.9063    0.0000 O.3     1  UNL1       -0.4578
      3 O           4.7950    1.6441    0.0000 O.3     1  UNL1       -0.3888
      4 O           6.5271    2.6441    0.0000 O.3     1  UNL1       -0.3858
      5 O           9.1549    0.1796    0.0000 O.3     1  UNL1       -0.4464
      6 O           8.8931    2.0101    0.0000 O.3     1  UNL1       -0.4659
      7 O           7.3931    2.8761    0.0000 O.2     1  UNL1       -0.2475
      8 O           9.2029   -1.8589    0.0000 O.2     1  UNL1       -0.2466
      9 O           2.0000   -1.9082    0.0000 O.2     1  UNL1       -0.2876
     10 O          10.0617   -1.2961    0.0000 O.2     1  UNL1       -0.2456
     11 O          13.4697    0.7981    0.0000 O.3     1  UNL1       -0.4544
     12 O          14.3765   -0.6777    0.0000 O.2     1  UNL1       -0.2511
     13 C           6.5271   -0.3559    0.0000 C.3     1  UNL1        0.0477
     14 C           5.6610    0.1441    0.0000 C.3     1  UNL1        0.0117
     15 C           7.3931    0.1441    0.0000 C.3     1  UNL1        0.0603
     16 C           7.3931    1.1441    0.0000 C.3     1  UNL1        0.2007
     17 C           6.5431   -1.3974    0.0000 C.3     1  UNL1        0.1154
     18 C           4.7510   -0.3628    0.0000 C.3     1  UNL1        0.0140
     19 C           5.6610    1.1441    0.0000 C.3     1  UNL1        0.0889
     20 C           6.4137    0.2477    0.0000 C.3     1  UNL1        0.0591
     21 C           6.5271    1.6441    0.0000 C.3     1  UNL1        0.1210
     22 C           8.3029   -0.3439    0.0000 C.3     1  UNL1        0.2059
     23 C           5.6451   -1.9252    0.0000 C.3     1  UNL1        0.0077
     24 C           4.7430   -1.4044    0.0000 C.2     1  UNL1       -0.0495
     25 C           7.8931    2.0101    0.0000 C.2     1  UNL1        0.3423
     26 C           4.4163    0.5795    0.0000 C.3     1  UNL1       -0.0520
     27 C           8.3272   -1.3760    0.0000 C.2     1  UNL1        0.3491
     28 C           3.8242    0.2013    0.0000 C.2     1  UNL1       -0.0701
     29 C           3.8076   -1.9541    0.0000 C.2     1  UNL1       -0.0036
     30 C           2.8763   -0.3266    0.0000 C.2     1  UNL1       -0.0178
     31 C           2.8680   -1.4116    0.0000 C.2     1  UNL1        0.1816
     32 C           3.8114   -2.9541    0.0000 C.3     1  UNL1       -0.0361
     33 C          10.0343   -0.2965    0.0000 C.2     1  UNL1        0.3328
     34 C           9.3931    2.8761    0.0000 C.3     1  UNL1        0.0818
     35 C          10.8863    0.2271    0.0000 C.2     1  UNL1        0.0252
     36 C          11.7657   -0.2490    0.0000 C.2     1  UNL1       -0.0234
     37 C          12.6177    0.2745    0.0000 C.3     1  UNL1        0.1292
     38 C          11.7931   -1.2486    0.0000 C.3     1  UNL1       -0.0396
     39 C          13.1412   -0.5775    0.0000 C.3     1  UNL1       -0.0211
     40 C          12.0941    1.1265    0.0000 C.3     1  UNL1       -0.0211
     41 C          14.3491    0.3220    0.0000 C.2     1  UNL1        0.3048
     42 C          15.2011    0.8455    0.0000 C.3     1  UNL1        0.0333
     43 H           4.9249    0.5691    0.0000 H       1  UNL1        0.0345
     44 H           7.8181   -0.5920    0.0000 H       1  UNL1        0.0384
     45 H           6.5498   -2.2474    0.0000 H       1  UNL1        0.0743
     46 H           5.6610    1.7641    0.0000 H       1  UNL1        0.0623
     47 H           5.9865    0.6971    0.0000 H       1  UNL1        0.0567
     48 H           5.8617   -0.0347    0.0000 H       1  UNL1        0.0567
     49 H           7.0640    1.9541    0.0000 H       1  UNL1        0.0654
     50 H           8.8475   -0.6402    0.0000 H       1  UNL1        0.0857
     51 H           5.2478   -2.4012    0.0000 H       1  UNL1        0.0346
     52 H           6.0460   -2.3981    0.0000 H       1  UNL1        0.0346
     53 H           5.0005    0.7871    0.0000 H       1  UNL1        0.0241
     54 H           4.2087    1.1638    0.0000 H       1  UNL1        0.0241
     55 H           3.8320    0.3720    0.0000 H       1  UNL1        0.0241
     56 H           3.8361    0.8212    0.0000 H       1  UNL1        0.0582
     57 H           4.7950    2.2641    0.0000 H       1  UNL1        0.2099
     58 H           5.9901    2.9541    0.0000 H       1  UNL1        0.2100
     59 H           2.3430   -0.0104    0.0000 H       1  UNL1        0.0653
     60 H           3.1914   -2.9565    0.0000 H       1  UNL1        0.0279
     61 H           3.8138   -3.5741    0.0000 H       1  UNL1        0.0279
     62 H           4.4314   -2.9517    0.0000 H       1  UNL1        0.0279
     63 H           9.9300    2.5661    0.0000 H       1  UNL1        0.0661
     64 H           9.7031    3.4131    0.0000 H       1  UNL1        0.0661
     65 H           8.8562    3.1861    0.0000 H       1  UNL1        0.0661
     66 H          10.8693    0.8468    0.0000 H       1  UNL1        0.0689
     67 H          11.1733   -1.2656    0.0000 H       1  UNL1        0.0276
     68 H          11.8101   -1.8684    0.0000 H       1  UNL1        0.0276
     69 H          12.4128   -1.2317    0.0000 H       1  UNL1        0.0276
     70 H          12.6224    1.4511    0.0000 H       1  UNL1        0.0271
     71 H          12.6130   -0.9021    0.0000 H       1  UNL1        0.0271
     72 H          13.4658   -1.1057    0.0000 H       1  UNL1        0.0271
     73 H          13.6695   -0.2529    0.0000 H       1  UNL1        0.0271
     74 H          11.7695    1.6548    0.0000 H       1  UNL1        0.0271
     75 H          11.5659    0.8019    0.0000 H       1  UNL1        0.0271
     76 H          15.5257    0.3173    0.0000 H       1  UNL1        0.0342
     77 H          15.7293    1.1701    0.0000 H       1  UNL1        0.0342
     78 H          14.8765    1.3738    0.0000 H       1  UNL1        0.0342
@<TRIPOS>BOND
     1     1    16    1
     2     1    20    1
     3     2    17    1
     4     2    27    1
     5    19     3    1
     6     3    57    1
     7    21     4    1
     8     4    58    1
     9    22     5    1
    10     5    33    1
    11     6    25    1
    12     6    34    1
    13     7    25    2
    14     8    27    2
    15     9    31    2
    16    10    33    2
    17    11    37    1
    18    11    41    1
    19    12    41    2
    20    13    14    1
    21    13    15    1
    22    13    17    1
    23    13    20    1
    24    14    18    1
    25    14    19    1
    26    14    43    1
    27    15    16    1
    28    15    22    1
    29    15    44    1
    30    16    21    1
    31    16    25    1
    32    17    23    1
    33    17    45    1
    34    18    24    1
    35    18    26    1
    36    18    28    1
    37    19    21    1
    38    19    46    1
    39    20    47    1
    40    20    48    1
    41    21    49    1
    42    22    27    1
    43    22    50    1
    44    23    24    1
    45    23    51    1
    46    23    52    1
    47    24    29    2
    48    26    53    1
    49    26    54    1
    50    26    55    1
    51    28    30    2
    52    28    56    1
    53    29    31    1
    54    29    32    1
    55    30    31    1
    56    30    59    1
    57    32    60    1
    58    32    61    1
    59    32    62    1
    60    33    35    1
    61    34    63    1
    62    34    64    1
    63    34    65    1
    64    35    36    2
    65    35    66    1
    66    36    37    1
    67    36    38    1
    68    37    39    1
    69    37    40    1
    70    38    67    1
    71    38    68    1
    72    38    69    1
    73    39    71    1
    74    39    72    1
    75    39    73    1
    76    40    70    1
    77    40    74    1
    78    40    75    1
    79    41    42    1
    80    42    76    1
    81    42    77    1
    82    42    78    1
