@<TRIPOS>MOLECULE
IMPHY009915
 71 74 0 0 0
SMALL
GASTEIGER

@<TRIPOS>ATOM
      1 O           2.5393   -0.7633    0.0000 O.3     1  UNL1       -0.3872
      2 O           6.1076    0.2671    0.0000 O.3     1  UNL1       -0.4570
      3 O           4.3366   -2.8841    0.0000 O.3     1  UNL1       -0.4570
      4 O           6.1399   -1.8244    0.0000 O.3     1  UNL1       -0.4540
      5 O           2.9174    3.6786    0.0000 O.3     1  UNL1       -0.3838
      6 O           5.8865    3.4797    0.0000 O.2     1  UNL1       -0.4674
      7 O           7.0024   -1.2160    0.0000 O.2     1  UNL1       -0.2512
      8 O           2.6045   -2.8908    0.0000 O.2     1  UNL1       -0.2512
      9 O           5.2913   -3.3343    0.0000 O.2     1  UNL1       -0.2512
     10 C           4.2995    0.2711    0.0000 C.3     1  UNL1        0.0415
     11 C           3.4014   -0.2567    0.0000 C.3     1  UNL1        0.0838
     12 C           4.2834    1.3126    0.0000 C.3     1  UNL1       -0.0169
     13 C           3.3931   -1.3416    0.0000 C.3     1  UNL1        0.0352
     14 C           3.4174    1.8126    0.0000 C.3     1  UNL1       -0.0041
     15 C           5.2514   -0.2495    0.0000 C.3     1  UNL1        0.1515
     16 C           2.4994    0.2641    0.0000 C.3     1  UNL1       -0.0224
     17 C           2.5074    1.3057    0.0000 C.3     1  UNL1       -0.0444
     18 C           4.3327   -1.8841    0.0000 C.3     1  UNL1        0.1509
     19 C           5.2682   -1.3344    0.0000 C.3     1  UNL1        0.1774
     20 C           3.4174    2.8126    0.0000 C.3     1  UNL1        0.0944
     21 C           5.1495    1.8126    0.0000 C.3     1  UNL1        0.0098
     22 C           5.1616    0.7777    0.0000 C.3     1  UNL1       -0.0531
     23 C           2.8898   -2.2057    0.0000 C.3     1  UNL1       -0.0536
     24 C           2.4076   -1.5115    0.0000 C.3     1  UNL1       -0.0536
     25 C           4.2834    3.3126    0.0000 C.ar    1  UNL1        0.0248
     26 C           5.1495    2.8126    0.0000 C.ar    1  UNL1        0.1110
     27 C           2.4174    2.8126    0.0000 C.3     1  UNL1       -0.0315
     28 C           4.4926    4.2844    0.0000 C.ar    1  UNL1       -0.0177
     29 C           6.9832   -0.2162    0.0000 C.2     1  UNL1        0.3043
     30 C           5.4814    4.3875    0.0000 C.ar    1  UNL1        0.0924
     31 C           3.4725   -3.3875    0.0000 C.2     1  UNL1        0.3043
     32 C           6.1515   -2.8243    0.0000 C.2     1  UNL1        0.3044
     33 C           7.8394    0.3004    0.0000 C.3     1  UNL1        0.0332
     34 C           3.4763   -4.3875    0.0000 C.3     1  UNL1        0.0332
     35 C           7.0232   -3.3142    0.0000 C.3     1  UNL1        0.0332
     36 H           5.0228    0.8933    0.0000 H       1  UNL1        0.0316
     37 H           2.6846    2.2433    0.0000 H       1  UNL1        0.0335
     38 H           5.7937   -0.5502    0.0000 H       1  UNL1        0.0779
     39 H           1.8894    0.3749    0.0000 H       1  UNL1        0.0293
     40 H           2.2858   -0.3179    0.0000 H       1  UNL1        0.0293
     41 H           2.3029    1.8910    0.0000 H       1  UNL1        0.0270
     42 H           1.8958    1.2044    0.0000 H       1  UNL1        0.0270
     43 H           3.7964   -2.1952    0.0000 H       1  UNL1        0.0779
     44 H           5.2741   -1.9544    0.0000 H       1  UNL1        0.0810
     45 H           5.3615    1.2300    0.0000 H       1  UNL1        0.0347
     46 H           5.7600    1.9202    0.0000 H       1  UNL1        0.0347
     47 H           5.4758    0.2432    0.0000 H       1  UNL1        0.0237
     48 H           5.6962    1.0919    0.0000 H       1  UNL1        0.0237
     49 H           4.8475    1.3123    0.0000 H       1  UNL1        0.0237
     50 H           2.3540   -1.8937    0.0000 H       1  UNL1        0.0237
     51 H           2.3023   -0.9005    0.0000 H       1  UNL1        0.0237
     52 H           1.7966   -1.6168    0.0000 H       1  UNL1        0.0237
     53 H           2.5129   -2.1225    0.0000 H       1  UNL1        0.0237
     54 H           2.5777   -2.7415    0.0000 H       1  UNL1        0.0237
     55 H           3.4255   -2.5178    0.0000 H       1  UNL1        0.0237
     56 H           2.0000   -0.4575    0.0000 H       1  UNL1        0.2102
     57 H           2.4174    3.4326    0.0000 H       1  UNL1        0.0261
     58 H           1.7974    2.8126    0.0000 H       1  UNL1        0.0261
     59 H           2.4174    2.1926    0.0000 H       1  UNL1        0.0261
     60 H           2.2974    3.6786    0.0000 H       1  UNL1        0.2106
     61 H           4.0786    4.7459    0.0000 H       1  UNL1        0.0653
     62 H           5.7914    4.9244    0.0000 H       1  UNL1        0.1029
     63 H           8.1597   -0.2304    0.0000 H       1  UNL1        0.0342
     64 H           8.3702    0.6207    0.0000 H       1  UNL1        0.0342
     65 H           7.5191    0.8313    0.0000 H       1  UNL1        0.0342
     66 H           2.8564   -4.3898    0.0000 H       1  UNL1        0.0342
     67 H           3.4787   -5.0075    0.0000 H       1  UNL1        0.0342
     68 H           4.0963   -4.3851    0.0000 H       1  UNL1        0.0342
     69 H           6.7194   -3.8547    0.0000 H       1  UNL1        0.0342
     70 H           7.5637   -3.6180    0.0000 H       1  UNL1        0.0342
     71 H           7.3270   -2.7738    0.0000 H       1  UNL1        0.0342
@<TRIPOS>BOND
     1    11     1    1
     2     1    56    1
     3    15     2    1
     4     2    29    1
     5    18     3    1
     6     3    31    1
     7    19     4    1
     8     4    32    1
     9    20     5    1
    10     5    60    1
    11     6    26   ar
    12     6    30   ar
    13     7    29    2
    14     8    31    2
    15     9    32    2
    16    10    11    1
    17    10    12    1
    18    10    15    1
    19    10    22    1
    20    11    13    1
    21    11    16    1
    22    12    14    1
    23    12    21    1
    24    12    36    1
    25    13    18    1
    26    13    23    1
    27    13    24    1
    28    14    17    1
    29    14    20    1
    30    14    37    1
    31    15    19    1
    32    15    38    1
    33    16    17    1
    34    16    39    1
    35    16    40    1
    36    17    41    1
    37    17    42    1
    38    18    19    1
    39    18    43    1
    40    19    44    1
    41    20    25    1
    42    20    27    1
    43    21    26    1
    44    21    45    1
    45    21    46    1
    46    22    47    1
    47    22    48    1
    48    22    49    1
    49    23    50    1
    50    23    54    1
    51    23    55    1
    52    24    51    1
    53    24    52    1
    54    24    53    1
    55    25    26   ar
    56    25    28   ar
    57    27    57    1
    58    27    58    1
    59    27    59    1
    60    28    30   ar
    61    28    61    1
    62    29    33    1
    63    30    62    1
    64    31    34    1
    65    32    35    1
    66    33    63    1
    67    33    64    1
    68    33    65    1
    69    34    66    1
    70    34    67    1
    71    34    68    1
    72    35    69    1
    73    35    70    1
    74    35    71    1
