@<TRIPOS>MOLECULE
IMPHY010702
 33 35 0 0 0
SMALL
GASTEIGER

@<TRIPOS>ATOM
      1 C          10.1503   -0.2538    0.0000 C.3     1  UNL1        0.0306
      2 C           8.9932   -0.7511    0.0000 C.2     1  UNL1       -0.0236
      3 C           8.8511   -1.9996    0.0000 C.2     1  UNL1        0.0495
      4 C           9.8560   -2.7609    0.0000 C.3     1  UNL1        0.0375
      5 C           7.6940   -2.5071    0.0000 C.2     1  UNL1        0.3364
      6 O           6.6789   -1.7459    0.0000 O.2     1  UNL1       -0.2453
      7 O           7.5417   -3.7556    0.0000 O.3     1  UNL1       -0.4566
      8 C           5.6436   -4.5778    0.0000 C.3     1  UNL1        0.1239
      9 C           4.4052   -4.3545    0.0000 C.3     1  UNL1        0.0655
     10 C           3.3192   -4.9838    0.0000 C.3     1  UNL1        0.1178
     11 C           2.8624   -3.8064    0.0000 C.3     1  UNL1        0.0319
     12 C           1.3500   -5.4101    0.0000 C.3     1  UNL1        0.1026
     13 C           1.3500   -6.9327    0.0000 C.3     1  UNL1        0.0889
     14 C           3.3192   -7.3488    0.0000 C.3     1  UNL1        0.2390
     15 C           4.4052   -7.9782    0.0000 C.2     1  UNL1        0.0404
     16 C           5.6436   -7.7650    0.0000 C.2     1  UNL1        0.0078
     17 C           6.4556   -6.8007    0.0000 C.3     1  UNL1        0.1393
     18 C           6.4556   -5.5421    0.0000 C.3     1  UNL1        0.0704
     19 C           7.6533   -5.1462    0.0000 C.2     1  UNL1        0.0553
     20 C           8.2421   -4.0398    0.0000 C.2     1  UNL1        0.0019
     21 C           8.3943   -6.1714    0.0000 C.2     1  UNL1        0.3369
     22 O           9.6530   -6.1714    0.0000 O.2     1  UNL1       -0.2453
     23 O           7.6533   -7.1864    0.0000 O.3     1  UNL1       -0.4525
     24 H           6.8007   -4.3240    0.0000 H       1  UNL1        0.0427
     25 H           6.8007   -8.0086    0.0000 H       1  UNL1        0.0793
     26 C           4.1921   -9.2267    0.0000 C.3     1  UNL1        0.2089
     27 O           3.0045   -9.6530    0.0000 O.3     1  UNL1       -0.2154
     28 O           2.8624   -8.5263    0.0000 O.3     1  UNL1       -0.1906
     29 O           2.8827   -6.1714    0.0000 O.3     1  UNL1       -0.3318
     30 O           1.1673   -4.1616    0.0000 O.3     1  UNL1       -0.3572
     31 C           0.0000   -3.6846    0.0000 C.3     1  UNL1        0.1736
     32 H           0.0914   -5.4913    0.0000 H       1  UNL1        0.0633
     33 H           5.5015   -3.3192    0.0000 H       1  UNL1        0.0748
@<TRIPOS>BOND
     1     1     2    1
     2     2     3    2
     3     3     4    1
     4     3     5    1
     5     5     6    2
     6     5     7    1
     7     7     8    1
     8     8     9    1
     9     8    18    1
    10     8    33    1
    11     9    10    1
    12    10    11    1
    13    10    12    1
    14    10    29    1
    15    12    13    1
    16    12    30    1
    17    12    32    1
    18    13    14    1
    19    14    15    1
    20    14    28    1
    21    14    29    1
    22    15    16    2
    23    15    26    1
    24    16    17    1
    25    17    18    1
    26    17    23    1
    27    17    25    1
    28    18    19    1
    29    18    24    1
    30    19    20    2
    31    19    21    1
    32    21    22    2
    33    21    23    1
    34    26    27    1
    35    30    31    1
