@<TRIPOS>MOLECULE
IMPHY008415
 35 34 0 0 0
SMALL
GASTEIGER

@<TRIPOS>ATOM
      1 O           8.9282    0.5950    0.0000 O.3     1  UNL1       -0.3842
      2 O           8.0622   -1.9050    0.0000 O.3     1  UNL1       -0.3763
      3 O          14.1244   -0.4050    0.0000 O.3     1  UNL1       -0.3950
      4 C          11.5263   -0.9050    0.0000 C.3     1  UNL1       -0.0326
      5 C          12.3923   -0.4050    0.0000 C.3     1  UNL1       -0.0263
      6 C           8.9282   -0.4050    0.0000 C.3     1  UNL1        0.1103
      7 C          10.6603   -0.4050    0.0000 C.2     1  UNL1       -0.0853
      8 C           9.7942   -0.9050    0.0000 C.2     1  UNL1       -0.0564
      9 C           8.0622   -0.9050    0.0000 C.3     1  UNL1        0.1456
     10 C          13.2583   -0.9050    0.0000 C.3     1  UNL1        0.0445
     11 C           7.1962   -0.4050    0.0000 C.1     1  UNL1       -0.0542
     12 C           6.3301    0.0950    0.0000 C.1     1  UNL1       -0.0118
     13 C           5.4641    0.5950    0.0000 C.1     1  UNL1       -0.0101
     14 C           4.5981    1.0950    0.0000 C.1     1  UNL1       -0.0606
     15 C           3.7320    1.5950    0.0000 C.2     1  UNL1       -0.0148
     16 C           2.8660    1.0950    0.0000 C.2     1  UNL1       -0.0789
     17 C           2.0000    1.5950    0.0000 C.3     1  UNL1       -0.0459
     18 H          11.1278   -1.3800    0.0000 H       1  UNL1        0.0308
     19 H          11.9248   -1.3800    0.0000 H       1  UNL1        0.0308
     20 H          12.7908    0.0699    0.0000 H       1  UNL1        0.0290
     21 H          11.9938    0.0699    0.0000 H       1  UNL1        0.0290
     22 H           9.6643    0.0200    0.0000 H       1  UNL1        0.0674
     23 H          10.6603    0.2150    0.0000 H       1  UNL1        0.0570
     24 H           9.7942   -1.5250    0.0000 H       1  UNL1        0.0595
     25 H           7.3261   -1.3300    0.0000 H       1  UNL1        0.0761
     26 H          12.8598   -1.3800    0.0000 H       1  UNL1        0.0557
     27 H          13.6569   -1.3800    0.0000 H       1  UNL1        0.0557
     28 H           9.4651    0.9050    0.0000 H       1  UNL1        0.2104
     29 H           7.5252   -2.2150    0.0000 H       1  UNL1        0.2112
     30 H          14.6613   -0.7150    0.0000 H       1  UNL1        0.2094
     31 H           3.7320    2.2150    0.0000 H       1  UNL1        0.0709
     32 H           2.8660    0.4750    0.0000 H       1  UNL1        0.0575
     33 H           2.3100    2.1319    0.0000 H       1  UNL1        0.0272
     34 H           1.4631    1.9050    0.0000 H       1  UNL1        0.0272
     35 H           1.6900    1.0581    0.0000 H       1  UNL1        0.0272
@<TRIPOS>BOND
     1     1     6    1
     2     1    28    1
     3     2     9    1
     4     2    29    1
     5     3    10    1
     6     3    30    1
     7     4     5    1
     8     4     7    1
     9     4    18    1
    10     4    19    1
    11     5    10    1
    12     5    20    1
    13     5    21    1
    14     6     8    1
    15     6     9    1
    16     6    22    1
    17     7     8    2
    18     7    23    1
    19     8    24    1
    20     9    11    1
    21     9    25    1
    22    10    26    1
    23    10    27    1
    24    11    12    3
    25    12    13    1
    26    13    14    3
    27    14    15    1
    28    15    16    2
    29    15    31    1
    30    16    17    1
    31    16    32    1
    32    17    33    1
    33    17    34    1
    34    17    35    1
