@<TRIPOS>MOLECULE
IMPHY014726
 44 46 0 0 0
SMALL
GASTEIGER

@<TRIPOS>ATOM
      1 O           2.1660   -1.6468    0.0000 O.3     1  UNL1       -0.3612
      2 O           2.0000    1.1156    0.0000 O.3     1  UNL1       -0.4546
      3 O           5.2275    0.2588    0.0000 O.3     1  UNL1       -0.4605
      4 O           2.2760    2.8704    0.0000 O.2     1  UNL1       -0.2453
      5 O           5.5876    1.9530    0.0000 O.2     1  UNL1       -0.2512
      6 C           3.1174   -1.3374    0.0000 C.3     1  UNL1        0.0972
      7 C           2.3743   -0.6682    0.0000 C.3     1  UNL1        0.1255
      8 C           2.5822    0.3099    0.0000 C.3     1  UNL1        0.1424
      9 C           3.5333    0.6189    0.0000 C.3     1  UNL1        0.0672
     10 C           4.0685   -1.0284    0.0000 C.3     1  UNL1       -0.0180
     11 C           3.4265   -2.2884    0.0000 C.3     1  UNL1       -0.0332
     12 C           4.2764   -0.0502    0.0000 C.3     1  UNL1        0.1171
     13 C           5.0196   -0.7193    0.0000 C.3     1  UNL1       -0.0318
     14 C           3.5307    1.6130    0.0000 C.2     1  UNL1        0.0397
     15 C           4.0685   -1.0284    0.0000 C.3     1  UNL1        0.0060
     16 C           2.5850    1.9194    0.0000 C.2     1  UNL1        0.3355
     17 C           5.3286   -1.6704    0.0000 C.2     1  UNL1       -0.0848
     18 C           4.3775   -1.9794    0.0000 C.2     1  UNL1       -0.0730
     19 C           3.9358    2.5272    0.0000 C.2     1  UNL1       -0.0882
     20 C           3.9235   -2.8704    0.0000 C.3     1  UNL1       -0.0437
     21 C           5.8966    1.0019    0.0000 C.2     1  UNL1        0.3042
     22 C           6.8748    0.7940    0.0000 C.3     1  UNL1        0.0332
     23 H           1.5429   -0.4914    0.0000 H       1  UNL1        0.0662
     24 H           1.7506    0.1343    0.0000 H       1  UNL1        0.0769
     25 H           4.3093    0.9657    0.0000 H       1  UNL1        0.0424
     26 H           3.9396   -1.6348    0.0000 H       1  UNL1        0.0297
     27 H           3.8769   -0.4387    0.0000 H       1  UNL1        0.0297
     28 H           2.8368   -2.4800    0.0000 H       1  UNL1        0.0258
     29 H           3.6181   -2.8781    0.0000 H       1  UNL1        0.0258
     30 H           4.0161   -2.0968    0.0000 H       1  UNL1        0.0258
     31 H           4.4053    0.5562    0.0000 H       1  UNL1        0.0744
     32 H           5.6092   -0.5278    0.0000 H       1  UNL1        0.0308
     33 H           4.8280   -0.1297    0.0000 H       1  UNL1        0.0308
     34 H           3.5427   -0.6998    0.0000 H       1  UNL1        0.0346
     35 H           4.6877   -0.9959    0.0000 H       1  UNL1        0.0346
     36 H           5.8810   -1.9519    0.0000 H       1  UNL1        0.0572
     37 H           4.5523    2.5931    0.0000 H       1  UNL1        0.0540
     38 H           3.5706    3.0282    0.0000 H       1  UNL1        0.0540
     39 H           3.3711   -2.5890    0.0000 H       1  UNL1        0.0274
     40 H           3.6421   -3.4228    0.0000 H       1  UNL1        0.0274
     41 H           4.4760   -3.1519    0.0000 H       1  UNL1        0.0274
     42 H           6.7458    0.1876    0.0000 H       1  UNL1        0.0342
     43 H           7.4812    0.6651    0.0000 H       1  UNL1        0.0342
     44 H           7.0037    1.4005    0.0000 H       1  UNL1        0.0342
@<TRIPOS>BOND
     1     1     6    1
     2     1     7    1
     3     2     8    1
     4     2    16    1
     5    12     3    1
     6     3    21    1
     7     4    16    2
     8     5    21    2
     9     6     7    1
    10     6    10    1
    11     6    11    1
    12     7     8    1
    13     7    23    1
    14     8     9    1
    15     8    24    1
    16     9    12    1
    17     9    14    1
    18     9    25    1
    19    10    13    1
    20    10    26    1
    21    10    27    1
    22    11    28    1
    23    11    29    1
    24    11    30    1
    25    12    15    1
    26    12    31    1
    27    13    17    1
    28    13    32    1
    29    13    33    1
    30    14    16    1
    31    14    19    2
    32    15    18    1
    33    15    34    1
    34    15    35    1
    35    17    18    2
    36    17    36    1
    37    18    20    1
    38    19    37    1
    39    19    38    1
    40    20    39    1
    41    20    40    1
    42    20    41    1
    43    21    22    1
    44    22    42    1
    45    22    43    1
    46    22    44    1
