@<TRIPOS>MOLECULE
IMPHY007361
 110 115 0 0 0
SMALL
GASTEIGER

@<TRIPOS>ATOM
      1 O          10.6089    7.8342    0.0000 O.3     1  UNL1       -0.3732
      2 O          10.6138   11.9497    0.0000 O.2     1  UNL1       -0.2672
      3 O           8.9299   11.3964    0.0000 O.3     1  UNL1       -0.4599
      4 O           9.5087    6.8058    0.0000 O.3     1  UNL1       -0.4236
      5 O           8.2181    7.9610    0.0000 O.2     1  UNL1       -0.2468
      6 O           7.2801   10.8689    0.0000 O.2     1  UNL1       -0.2512
      7 O           5.5073    2.3350    0.0000 O.2     1  UNL1       -0.2708
      8 O           6.0014   -7.5014    0.0000 O.2     1  UNL1       -0.2708
      9 O           2.0000  -11.9723    0.0000 O.3     1  UNL1       -0.5068
     10 N          11.9202   10.7631    0.0000 N.ar    1  UNL1       -0.3019
     11 N          13.8898    9.0717    0.0000 N.ar    1  UNL1       -0.2449
     12 N           6.0878   -2.2107    0.0000 N.3     1  UNL1       -0.3159
     13 N           6.7979    1.1799    0.0000 N.am    1  UNL1       -0.3118
     14 N           4.7108   -6.3463    0.0000 N.am    1  UNL1       -0.3118
     15 C          12.2266    9.8174    0.0000 C.ar    1  UNL1        0.0713
     16 C          10.5307    9.2463    0.0000 C.ar    1  UNL1        0.0082
     17 C          12.7239   11.3481    0.0000 C.3     1  UNL1        0.0539
     18 C           9.8638    8.5011    0.0000 C.3     1  UNL1        0.1881
     19 C          13.5296   10.7659    0.0000 C.ar    1  UNL1        0.0003
     20 C          13.2206    9.8148    0.0000 C.ar    1  UNL1        0.0929
     21 C          10.2116   10.2313    0.0000 C.ar    1  UNL1        0.0606
     22 C          11.5450    9.0379    0.0000 C.ar    1  UNL1       -0.0290
     23 C          10.9110   10.9949    0.0000 C.ar    1  UNL1        0.2589
     24 C           9.1186    9.1680    0.0000 C.3     1  UNL1       -0.0120
     25 C          14.5078   10.9738    0.0000 C.ar    1  UNL1       -0.0456
     26 C           9.2344   10.4438    0.0000 C.3     1  UNL1        0.1229
     27 C          15.1769   10.2307    0.0000 C.ar    1  UNL1        0.0007
     28 C           9.1969    7.7560    0.0000 C.2     1  UNL1        0.3490
     29 C          14.8679    9.2796    0.0000 C.ar    1  UNL1        0.0717
     30 C           8.1685    8.8562    0.0000 C.3     1  UNL1       -0.0618
     31 C          16.1923   10.4629    0.0000 C.ar    1  UNL1       -0.0526
     32 C          15.5529    8.4949    0.0000 C.ar    1  UNL1       -0.0357
     33 C          16.8953    9.6942    0.0000 C.ar    1  UNL1       -0.0611
     34 C          16.5734    8.7036    0.0000 C.ar    1  UNL1       -0.0597
     35 C           8.8418    6.0607    0.0000 C.ar    1  UNL1        0.1318
     36 C           7.9527   11.6089    0.0000 C.2     1  UNL1        0.3043
     37 C           7.8630    6.2657    0.0000 C.ar    1  UNL1       -0.0187
     38 C           9.1537    5.1106    0.0000 C.ar    1  UNL1       -0.0187
     39 C           7.6482   12.5614    0.0000 C.3     1  UNL1        0.0332
     40 C           5.7328   -3.9059    0.0000 C.3     1  UNL1       -0.0390
     41 C           5.4209   -2.9558    0.0000 C.3     1  UNL1       -0.0041
     42 C           5.0659   -4.6511    0.0000 C.3     1  UNL1       -0.0362
     43 C           5.7760   -1.2605    0.0000 C.3     1  UNL1       -0.0027
     44 C           7.1962    5.5206    0.0000 C.ar    1  UNL1       -0.0511
     45 C           8.4868    4.3654    0.0000 C.ar    1  UNL1       -0.0511
     46 C           6.4429   -0.5154    0.0000 C.3     1  UNL1       -0.0248
     47 C           7.5080    4.5704    0.0000 C.ar    1  UNL1       -0.0246
     48 C           5.3777   -5.6012    0.0000 C.3     1  UNL1        0.0119
     49 C           6.1310    0.4347    0.0000 C.3     1  UNL1        0.0130
     50 C           6.8411    3.8253    0.0000 C.2     1  UNL1       -0.0497
     51 C           7.1530    2.8752    0.0000 C.2     1  UNL1        0.0007
     52 C           6.4860    2.1300    0.0000 C.2     1  UNL1        0.2369
     53 C           5.0227   -7.2965    0.0000 C.2     1  UNL1        0.2369
     54 C           4.3558   -8.0416    0.0000 C.2     1  UNL1        0.0007
     55 C           4.6676   -8.9917    0.0000 C.2     1  UNL1       -0.0497
     56 C           4.0007   -9.7369    0.0000 C.ar    1  UNL1       -0.0247
     57 C           3.0220   -9.5319    0.0000 C.ar    1  UNL1       -0.0511
     58 C           4.3126  -10.6870    0.0000 C.ar    1  UNL1       -0.0511
     59 C           2.3550  -10.2770    0.0000 C.ar    1  UNL1       -0.0196
     60 C           3.6457  -11.4321    0.0000 C.ar    1  UNL1       -0.0196
     61 C           2.6669  -11.2272    0.0000 C.ar    1  UNL1        0.1169
     62 H          13.1378   11.8097    0.0000 H       1  UNL1        0.0543
     63 H          12.3084   11.8083    0.0000 H       1  UNL1        0.0543
     64 H          11.7429    8.4503    0.0000 H       1  UNL1        0.0643
     65 H           9.6060    9.5512    0.0000 H       1  UNL1        0.0299
     66 H           8.8259    9.7146    0.0000 H       1  UNL1        0.0299
     67 H          14.6994   11.5635    0.0000 H       1  UNL1        0.0628
     68 H           8.6200   10.3605    0.0000 H       1  UNL1        0.0750
     69 H           9.2098    9.8243    0.0000 H       1  UNL1        0.0750
     70 H           7.9752    9.4452    0.0000 H       1  UNL1        0.0231
     71 H           7.5794    8.6628    0.0000 H       1  UNL1        0.0231
     72 H           8.3618    8.2671    0.0000 H       1  UNL1        0.0231
     73 H          10.4818    7.2274    0.0000 H       1  UNL1        0.2113
     74 H          16.3771   11.0547    0.0000 H       1  UNL1        0.0624
     75 H          15.3545    7.9075    0.0000 H       1  UNL1        0.0639
     76 H          17.5012    9.8255    0.0000 H       1  UNL1        0.0618
     77 H          16.9865    8.2412    0.0000 H       1  UNL1        0.0618
     78 H           7.6697    6.8548    0.0000 H       1  UNL1        0.0654
     79 H           9.7605    4.9835    0.0000 H       1  UNL1        0.0654
     80 H           8.2388   12.7502    0.0000 H       1  UNL1        0.0342
     81 H           7.4594   13.1519    0.0000 H       1  UNL1        0.0342
     82 H           7.0576   12.3726    0.0000 H       1  UNL1        0.0342
     83 H           6.1159   -4.3934    0.0000 H       1  UNL1        0.0278
     84 H           6.2793   -3.6132    0.0000 H       1  UNL1        0.0278
     85 H           5.0377   -2.4684    0.0000 H       1  UNL1        0.0424
     86 H           4.8744   -3.2485    0.0000 H       1  UNL1        0.0424
     87 H           4.6827   -4.1636    0.0000 H       1  UNL1        0.0281
     88 H           4.5193   -4.9438    0.0000 H       1  UNL1        0.0281
     89 H           5.3928   -0.7731    0.0000 H       1  UNL1        0.0424
     90 H           5.2294   -1.5532    0.0000 H       1  UNL1        0.0424
     91 H           6.5893    5.6476    0.0000 H       1  UNL1        0.0625
     92 H           8.6801    3.7764    0.0000 H       1  UNL1        0.0625
     93 H           6.8260   -1.0028    0.0000 H       1  UNL1        0.0293
     94 H           6.9894   -0.2227    0.0000 H       1  UNL1        0.0293
     95 H           6.6946   -2.3378    0.0000 H       1  UNL1        0.1219
     96 H           5.7609   -6.0886    0.0000 H       1  UNL1        0.0462
     97 H           5.9243   -5.3085    0.0000 H       1  UNL1        0.0462
     98 H           5.7478    0.9222    0.0000 H       1  UNL1        0.0462
     99 H           5.5844    0.1420    0.0000 H       1  UNL1        0.0462
    100 H           6.2343    3.9524    0.0000 H       1  UNL1        0.0625
    101 H           7.4047    1.0528    0.0000 H       1  UNL1        0.1490
    102 H           4.1040   -6.2192    0.0000 H       1  UNL1        0.1490
    103 H           7.7598    2.7481    0.0000 H       1  UNL1        0.0669
    104 H           3.7489   -7.9145    0.0000 H       1  UNL1        0.0669
    105 H           5.2745   -9.1188    0.0000 H       1  UNL1        0.0625
    106 H           2.8286   -8.9428    0.0000 H       1  UNL1        0.0625
    107 H           4.9194  -10.8141    0.0000 H       1  UNL1        0.0625
    108 H           1.7482  -10.1499    0.0000 H       1  UNL1        0.0654
    109 H           3.8390  -12.0212    0.0000 H       1  UNL1        0.0654
    110 H           2.1934  -12.5614    0.0000 H       1  UNL1        0.2921
@<TRIPOS>BOND
     1    18     1    1
     2     1    73    1
     3     2    23    2
     4     3    26    1
     5     3    36    1
     6     4    28    1
     7     4    35    1
     8     5    28    2
     9     6    36    2
    10     7    52    2
    11     8    53    2
    12     9    61    1
    13     9   110    1
    14    10    15   ar
    15    10    17    1
    16    10    23   ar
    17    11    20   ar
    18    11    29   ar
    19    12    41    1
    20    12    43    1
    21    12    95    1
    22    13    49    1
    23    13    52   am
    24    13   101    1
    25    14    48    1
    26    14    53   am
    27    14   102    1
    28    15    20    1
    29    15    22   ar
    30    16    18    1
    31    16    21   ar
    32    16    22   ar
    33    17    19    1
    34    17    62    1
    35    17    63    1
    36    18    24    1
    37    18    28    1
    38    19    20   ar
    39    19    25   ar
    40    21    23   ar
    41    21    26    1
    42    22    64    1
    43    24    30    1
    44    24    65    1
    45    24    66    1
    46    25    27   ar
    47    25    67    1
    48    26    68    1
    49    26    69    1
    50    27    29   ar
    51    27    31   ar
    52    29    32   ar
    53    30    70    1
    54    30    71    1
    55    30    72    1
    56    31    33   ar
    57    31    74    1
    58    32    34   ar
    59    32    75    1
    60    33    34   ar
    61    33    76    1
    62    34    77    1
    63    35    37   ar
    64    35    38   ar
    65    36    39    1
    66    37    44   ar
    67    37    78    1
    68    38    45   ar
    69    38    79    1
    70    39    80    1
    71    39    81    1
    72    39    82    1
    73    40    41    1
    74    40    42    1
    75    40    83    1
    76    40    84    1
    77    41    85    1
    78    41    86    1
    79    42    48    1
    80    42    87    1
    81    42    88    1
    82    43    46    1
    83    43    89    1
    84    43    90    1
    85    44    47   ar
    86    44    91    1
    87    45    47   ar
    88    45    92    1
    89    46    49    1
    90    46    93    1
    91    46    94    1
    92    47    50    1
    93    48    96    1
    94    48    97    1
    95    49    98    1
    96    49    99    1
    97    50    51    2
    98    50   100    1
    99    51    52    1
   100    51   103    1
   101    53    54    1
   102    54    55    2
   103    54   104    1
   104    55    56    1
   105    55   105    1
   106    56    57   ar
   107    56    58   ar
   108    57    59   ar
   109    57   106    1
   110    58    60   ar
   111    58   107    1
   112    59    61   ar
   113    59   108    1
   114    60    61   ar
   115    60   109    1
