@<TRIPOS>MOLECULE
IMPHY004766
 72 76 0 0 0
SMALL
GASTEIGER

@<TRIPOS>ATOM
      1 O           6.0010   -0.9050    0.0000 O.3     1  UNL1       -0.3366
      2 O           6.8671    1.5950    0.0000 O.3     1  UNL1       -0.3313
      3 O           4.2690   -0.9050    0.0000 O.3     1  UNL1       -0.3431
      4 O           4.2690    0.0950    0.0000 O.3     1  UNL1       -0.3863
      5 O           7.7331    0.0950    0.0000 O.3     1  UNL1       -0.4569
      6 O           4.2690    2.0950    0.0000 O.3     1  UNL1       -0.3865
      7 O           6.0010   -2.9050    0.0000 O.3     1  UNL1       -0.3841
      8 O           4.2690   -3.9050    0.0000 O.3     1  UNL1       -0.3864
      9 O           2.5369   -2.9050    0.0000 O.3     1  UNL1       -0.3866
     10 O           5.1350    3.5950    0.0000 O.3     1  UNL1       -0.3924
     11 O           7.7331    2.0950    0.0000 O.3     1  UNL1       -0.5009
     12 O          11.2251    0.0603    0.0000 O.2     1  UNL1       -0.4544
     13 O           9.4651    3.0950    0.0000 O.3     1  UNL1       -0.5027
     14 O          11.2135    3.1296    0.0000 O.2     1  UNL1       -0.2869
     15 O          15.5875   -1.4392    0.0000 O.3     1  UNL1       -0.5068
     16 C           6.0010    0.0950    0.0000 C.3     1  UNL1        0.1519
     17 C           5.1350    0.5950    0.0000 C.3     1  UNL1        0.1155
     18 C           5.1350    1.5950    0.0000 C.3     1  UNL1        0.1120
     19 C           5.1350   -1.4050    0.0000 C.3     1  UNL1        0.1885
     20 C           6.8671    0.5950    0.0000 C.3     1  UNL1        0.2313
     21 C           5.1350   -2.4050    0.0000 C.3     1  UNL1        0.1341
     22 C           6.0010    2.0950    0.0000 C.3     1  UNL1        0.1140
     23 C           4.2690   -2.9050    0.0000 C.3     1  UNL1        0.1140
     24 C           3.4030   -2.4050    0.0000 C.3     1  UNL1        0.1095
     25 C           3.4030   -1.4050    0.0000 C.3     1  UNL1        0.0873
     26 C           6.0010    3.0950    0.0000 C.3     1  UNL1        0.0731
     27 C           2.5369   -0.9050    0.0000 C.3     1  UNL1       -0.0361
     28 C           8.5991    0.5950    0.0000 C.ar    1  UNL1        0.1724
     29 C           8.5991    1.5950    0.0000 C.ar    1  UNL1        0.2019
     30 C           9.4651    0.0950    0.0000 C.ar    1  UNL1        0.0271
     31 C          10.3312    0.5950    0.0000 C.ar    1  UNL1        0.1465
     32 C           9.4651    2.0950    0.0000 C.ar    1  UNL1        0.1766
     33 C          10.3312    1.5950    0.0000 C.ar    1  UNL1        0.1091
     34 C          11.2251    2.1297    0.0000 C.ar    1  UNL1        0.1967
     35 C          12.1312    0.5742    0.0000 C.ar    1  UNL1        0.1392
     36 C          12.1312    1.6158    0.0000 C.ar    1  UNL1        0.0288
     37 C          12.9953    0.0709    0.0000 C.ar    1  UNL1        0.0176
     38 C          12.9914   -0.9291    0.0000 C.ar    1  UNL1       -0.0476
     39 C          13.8632    0.5675    0.0000 C.ar    1  UNL1       -0.0476
     40 C          13.8555   -1.4325    0.0000 C.ar    1  UNL1       -0.0195
     41 C          14.7273    0.0642    0.0000 C.ar    1  UNL1       -0.0195
     42 C          14.7234   -0.9358    0.0000 C.ar    1  UNL1        0.1169
     43 H           6.5380   -0.2150    0.0000 H       1  UNL1        0.0687
     44 H           4.5981    0.9050    0.0000 H       1  UNL1        0.0648
     45 H           5.1350    2.2150    0.0000 H       1  UNL1        0.0647
     46 H           5.1350   -0.7850    0.0000 H       1  UNL1        0.0938
     47 H           7.4040    0.9050    0.0000 H       1  UNL1        0.1084
     48 H           5.1350   -3.0250    0.0000 H       1  UNL1        0.0671
     49 H           6.5380    2.4050    0.0000 H       1  UNL1        0.0647
     50 H           3.7320   -3.2150    0.0000 H       1  UNL1        0.0648
     51 H           2.8660   -2.0950    0.0000 H       1  UNL1        0.0646
     52 H           3.4030   -0.7850    0.0000 H       1  UNL1        0.0621
     53 H           6.6116    2.9873    0.0000 H       1  UNL1        0.0584
     54 H           6.2131    3.6776    0.0000 H       1  UNL1        0.0584
     55 H           2.8469   -0.3681    0.0000 H       1  UNL1        0.0255
     56 H           2.0000   -0.5950    0.0000 H       1  UNL1        0.0255
     57 H           2.2269   -1.4419    0.0000 H       1  UNL1        0.0255
     58 H           3.7320    0.4050    0.0000 H       1  UNL1        0.2100
     59 H           4.2690    2.7150    0.0000 H       1  UNL1        0.2100
     60 H           6.0010   -3.5250    0.0000 H       1  UNL1        0.2101
     61 H           3.7320   -4.2150    0.0000 H       1  UNL1        0.2100
     62 H           2.0000   -2.5950    0.0000 H       1  UNL1        0.2100
     63 H           5.1350    4.2150    0.0000 H       1  UNL1        0.2095
     64 H           9.4651   -0.5250    0.0000 H       1  UNL1        0.0692
     65 H           7.7331    2.7150    0.0000 H       1  UNL1        0.2924
     66 H          12.6669    1.9279    0.0000 H       1  UNL1        0.0693
     67 H           8.9282    3.4050    0.0000 H       1  UNL1        0.2923
     68 H          12.4533   -1.2371    0.0000 H       1  UNL1        0.0626
     69 H          13.8656    1.1875    0.0000 H       1  UNL1        0.0626
     70 H          13.8531   -2.0525    0.0000 H       1  UNL1        0.0654
     71 H          15.2654    0.3721    0.0000 H       1  UNL1        0.0654
     72 H          16.1257   -1.1312    0.0000 H       1  UNL1        0.2921
@<TRIPOS>BOND
     1     1    16    1
     2    19     1    1
     3     2    20    1
     4     2    22    1
     5     3    19    1
     6     3    25    1
     7    17     4    1
     8     4    58    1
     9    20     5    1
    10     5    28    1
    11    18     6    1
    12     6    59    1
    13     7    21    1
    14     7    60    1
    15    23     8    1
    16     8    61    1
    17    24     9    1
    18     9    62    1
    19    10    26    1
    20    10    63    1
    21    11    29    1
    22    11    65    1
    23    12    31   ar
    24    12    35   ar
    25    13    32    1
    26    13    67    1
    27    14    34    2
    28    15    42    1
    29    15    72    1
    30    16    17    1
    31    16    20    1
    32    16    43    1
    33    17    18    1
    34    17    44    1
    35    18    22    1
    36    18    45    1
    37    19    21    1
    38    19    46    1
    39    20    47    1
    40    21    23    1
    41    21    48    1
    42    22    26    1
    43    22    49    1
    44    23    24    1
    45    23    50    1
    46    24    25    1
    47    24    51    1
    48    25    27    1
    49    25    52    1
    50    26    53    1
    51    26    54    1
    52    27    55    1
    53    27    56    1
    54    27    57    1
    55    28    29   ar
    56    28    30   ar
    57    29    32   ar
    58    30    31   ar
    59    30    64    1
    60    31    33   ar
    61    32    33   ar
    62    33    34   ar
    63    34    36   ar
    64    35    36   ar
    65    35    37    1
    66    36    66    1
    67    37    38   ar
    68    37    39   ar
    69    38    40   ar
    70    38    68    1
    71    39    41   ar
    72    39    69    1
    73    40    42   ar
    74    40    70    1
    75    41    42   ar
    76    41    71    1
