@<TRIPOS>MOLECULE
IMPHY001856
 23 23 0 0 0
SMALL
GASTEIGER

@<TRIPOS>ATOM
      1 O           5.3122    0.5830    0.0000 O.co2   1  UNL1       -0.5442
      2 O           4.7770   -1.0643    0.0000 O.co2   1  UNL1       -0.5442
      3 N           2.8090   -0.3649    0.0000 N.4     1  UNL1        0.2452
      4 C           3.6180    0.2229    0.0000 C.3     1  UNL1        0.0210
      5 C           2.0000    0.2229    0.0000 C.3     1  UNL1       -0.0298
      6 C           3.3090    1.1739    0.0000 C.3     1  UNL1        0.0007
      7 C           2.3090    1.1739    0.0000 C.3     1  UNL1       -0.0070
      8 C           2.2212   -1.1739    0.0000 C.3     1  UNL1       -0.0409
      9 C           3.3968   -1.1739    0.0000 C.3     1  UNL1       -0.0409
     10 C           4.5691   -0.0861    0.0000 C.2     1  UNL1        0.0895
     11 H           3.7150   -0.3895    0.0000 H       1  UNL1        0.0916
     12 H           1.4336    0.4750    0.0000 H       1  UNL1        0.0815
     13 H           1.6900   -0.3141    0.0000 H       1  UNL1        0.0815
     14 H           3.9155    1.3028    0.0000 H       1  UNL1        0.0326
     15 H           3.2442    1.7905    0.0000 H       1  UNL1        0.0326
     16 H           2.3738    1.7905    0.0000 H       1  UNL1        0.0319
     17 H           1.7026    1.3028    0.0000 H       1  UNL1        0.0319
     18 H           1.7196   -0.8095    0.0000 H       1  UNL1        0.0778
     19 H           1.8568   -1.6755    0.0000 H       1  UNL1        0.0778
     20 H           2.7228   -1.5384    0.0000 H       1  UNL1        0.0778
     21 H           2.8952   -1.5384    0.0000 H       1  UNL1        0.0778
     22 H           3.7612   -1.6755    0.0000 H       1  UNL1        0.0778
     23 H           3.8984   -0.8095    0.0000 H       1  UNL1        0.0778
@<TRIPOS>UNITY_ATOM_ATTR
1 1
charge -1
3 1
charge 1
@<TRIPOS>BOND
     1     1    10   ar
     2     2    10   ar
     3     3     4    1
     4     3     5    1
     5     3     8    1
     6     3     9    1
     7     4     6    1
     8     4    10    1
     9     4    11    1
    10     5     7    1
    11     5    12    1
    12     5    13    1
    13     6     7    1
    14     6    14    1
    15     6    15    1
    16     7    16    1
    17     7    17    1
    18     8    18    1
    19     8    19    1
    20     8    20    1
    21     9    21    1
    22     9    22    1
    23     9    23    1
