@<TRIPOS>MOLECULE
IMPHY005818
 16 15 0 0 0
SMALL
GASTEIGER

@<TRIPOS>ATOM
      1 O           5.4641    0.7500    0.0000 O.3     1  UNL1       -0.3947
      2 C           3.7320    0.7500    0.0000 C.3     1  UNL1       -0.0090
      3 C           2.8660    0.2500    0.0000 C.2     1  UNL1       -0.0775
      4 C           4.5981    0.2500    0.0000 C.3     1  UNL1        0.0479
      5 C           2.0000    0.7500    0.0000 C.3     1  UNL1       -0.0440
      6 C           2.8660   -0.7500    0.0000 C.2     1  UNL1       -0.0996
      7 H           4.1306    1.2250    0.0000 H       1  UNL1        0.0332
      8 H           3.3335    1.2250    0.0000 H       1  UNL1        0.0332
      9 H           4.1996   -0.2249    0.0000 H       1  UNL1        0.0560
     10 H           4.9966   -0.2249    0.0000 H       1  UNL1        0.0560
     11 H           2.3100    1.2869    0.0000 H       1  UNL1        0.0274
     12 H           1.4631    1.0600    0.0000 H       1  UNL1        0.0274
     13 H           1.6900    0.2131    0.0000 H       1  UNL1        0.0274
     14 H           2.3291   -1.0600    0.0000 H       1  UNL1        0.0534
     15 H           3.4030   -1.0600    0.0000 H       1  UNL1        0.0534
     16 H           6.0010    0.4400    0.0000 H       1  UNL1        0.2094
@<TRIPOS>BOND
     1     1     4    1
     2     1    16    1
     3     2     3    1
     4     2     4    1
     5     2     7    1
     6     2     8    1
     7     3     5    1
     8     3     6    2
     9     4     9    1
    10     4    10    1
    11     5    11    1
    12     5    12    1
    13     5    13    1
    14     6    14    1
    15     6    15    1
