@<TRIPOS>MOLECULE
IMPHY009186
 49 51 0 0 0
SMALL
GASTEIGER

@<TRIPOS>ATOM
      1 O           5.5321   -1.3867    0.0000 O.3     1  UNL1       -0.4215
      2 O           4.6660   -2.8867    0.0000 O.2     1  UNL1       -0.2500
      3 O           2.4732    0.7266    0.0000 O.2     1  UNL1       -0.3001
      4 O           7.3022   -0.3899    0.0000 O.3     1  UNL1       -0.5031
      5 O           4.6300    2.8867    0.0000 O.2     1  UNL1       -0.2957
      6 C           2.9061   -1.9214    0.0000 C.3     1  UNL1       -0.0208
      7 C           3.8000   -1.3867    0.0000 C.3     1  UNL1        0.0781
      8 C           3.8000   -0.3867    0.0000 C.3     1  UNL1        0.0684
      9 C           2.0000   -1.4075    0.0000 C.3     1  UNL1       -0.0470
     10 C           2.9061    0.1479    0.0000 C.3     1  UNL1       -0.0359
     11 C           2.0000   -0.3659    0.0000 C.3     1  UNL1       -0.0513
     12 C           4.6660    0.1133    0.0000 C.ar    1  UNL1        0.0226
     13 C           2.4161   -2.7931    0.0000 C.3     1  UNL1       -0.0590
     14 C           3.4160   -2.7816    0.0000 C.3     1  UNL1       -0.0590
     15 C           4.6660   -1.8867    0.0000 C.2     1  UNL1        0.3174
     16 C           3.4580    0.5530    0.0000 C.2     1  UNL1        0.1317
     17 C           5.5321   -0.3867    0.0000 C.ar    1  UNL1        0.1778
     18 C           4.6500    1.1548    0.0000 C.ar    1  UNL1        0.0223
     19 C           6.4421    0.1201    0.0000 C.ar    1  UNL1        0.1630
     20 C           6.4501    1.1617    0.0000 C.ar    1  UNL1        0.0010
     21 C           5.5480    1.6825    0.0000 C.ar    1  UNL1       -0.0441
     22 C           7.3180    1.6584    0.0000 C.3     1  UNL1       -0.0179
     23 C           4.1400    2.0150    0.0000 C.2     1  UNL1        0.1506
     24 C           7.3219    2.6584    0.0000 C.3     1  UNL1       -0.0585
     25 C           8.1821    1.1550    0.0000 C.3     1  UNL1       -0.0585
     26 H           3.8048   -2.0067    0.0000 H       1  UNL1        0.0432
     27 H           1.3891   -1.3014    0.0000 H       1  UNL1        0.0271
     28 H           1.7909   -1.9912    0.0000 H       1  UNL1        0.0271
     29 H           3.3107    0.6177    0.0000 H       1  UNL1        0.0278
     30 H           2.5124    0.6270    0.0000 H       1  UNL1        0.0278
     31 H           1.7909    0.2178    0.0000 H       1  UNL1        0.0266
     32 H           1.3891   -0.4720    0.0000 H       1  UNL1        0.0266
     33 H           2.8827   -3.0978    0.0000 H       1  UNL1        0.0235
     34 H           3.7322   -3.3149    0.0000 H       1  UNL1        0.0235
     35 H           3.9494   -2.4654    0.0000 H       1  UNL1        0.0235
     36 H           1.8756   -2.4894    0.0000 H       1  UNL1        0.0235
     37 H           2.1123   -3.3336    0.0000 H       1  UNL1        0.0235
     38 H           2.9566   -3.0969    0.0000 H       1  UNL1        0.0235
     39 H           3.8565    1.0279    0.0000 H       1  UNL1        0.1036
     40 H           5.5456    2.3025    0.0000 H       1  UNL1        0.0628
     41 H           7.8562    1.9663    0.0000 H       1  UNL1        0.0345
     42 H           3.5200    2.0078    0.0000 H       1  UNL1        0.1081
     43 H           7.2951   -1.0098    0.0000 H       1  UNL1        0.2923
     44 H           7.9419    2.6560    0.0000 H       1  UNL1        0.0235
     45 H           7.8701    0.6193    0.0000 H       1  UNL1        0.0235
     46 H           7.3243    3.2784    0.0000 H       1  UNL1        0.0235
     47 H           6.7019    2.6608    0.0000 H       1  UNL1        0.0235
     48 H           8.7179    0.8430    0.0000 H       1  UNL1        0.0235
     49 H           8.4942    1.6908    0.0000 H       1  UNL1        0.0235
@<TRIPOS>BOND
     1     1    15    1
     2     1    17    1
     3     2    15    2
     4     3    16    2
     5     4    19    1
     6     4    43    1
     7     5    23    2
     8     6     7    1
     9     6     9    1
    10     6    13    1
    11     6    14    1
    12     7     8    1
    13     7    15    1
    14     7    26    1
    15     8    10    1
    16     8    12    1
    17     8    16    1
    18     9    11    1
    19     9    27    1
    20     9    28    1
    21    10    11    1
    22    10    29    1
    23    10    30    1
    24    11    31    1
    25    11    32    1
    26    12    17   ar
    27    12    18   ar
    28    13    36    1
    29    13    37    1
    30    13    38    1
    31    14    33    1
    32    14    34    1
    33    14    35    1
    34    16    39    1
    35    17    19   ar
    36    18    21   ar
    37    18    23    1
    38    19    20   ar
    39    20    21   ar
    40    20    22    1
    41    21    40    1
    42    22    24    1
    43    22    25    1
    44    22    41    1
    45    23    42    1
    46    24    44    1
    47    24    46    1
    48    24    47    1
    49    25    45    1
    50    25    48    1
    51    25    49    1
