@<TRIPOS>MOLECULE
IMPHY006248
 52 53 0 0 0
SMALL
GASTEIGER

@<TRIPOS>ATOM
      1 O           8.7992   -1.4466    0.0000 O.3     1  UNL1       -0.4571
      2 O           5.4641    0.7204    0.0000 O.3     1  UNL1       -0.4552
      3 O           5.4641   -1.2796    0.0000 O.3     1  UNL1       -0.3874
      4 O           8.8941   -3.2204    0.0000 O.2     1  UNL1       -0.2453
      5 O           8.0622    3.2204    0.0000 O.2     1  UNL1       -0.2927
      6 O           4.5981   -0.7796    0.0000 O.2     1  UNL1       -0.2453
      7 C           7.1962   -1.2796    0.0000 C.3     1  UNL1        0.0571
      8 C           6.3301   -0.7796    0.0000 C.3     1  UNL1        0.1027
      9 C           8.0622   -0.7796    0.0000 C.3     1  UNL1        0.1165
     10 C           6.3301    0.2204    0.0000 C.3     1  UNL1        0.1327
     11 C           7.1962    0.7204    0.0000 C.3     1  UNL1        0.0028
     12 C           7.4054   -2.2514    0.0000 C.2     1  UNL1        0.0387
     13 C           8.0622    0.2204    0.0000 C.3     1  UNL1        0.0064
     14 C           7.1962    1.7204    0.0000 C.3     1  UNL1        0.0159
     15 C           8.3941   -2.3544    0.0000 C.2     1  UNL1        0.3354
     16 C           8.0622    1.2204    0.0000 C.3     1  UNL1       -0.0586
     17 C           8.9282    0.7204    0.0000 C.2     1  UNL1       -0.0658
     18 C           8.0622    2.2204    0.0000 C.2     1  UNL1        0.1564
     19 C           8.9282    1.7204    0.0000 C.2     1  UNL1       -0.0201
     20 C           6.7375   -2.9957    0.0000 C.2     1  UNL1       -0.0882
     21 C           9.7942    0.2204    0.0000 C.3     1  UNL1       -0.0433
     22 C           4.5981    0.2204    0.0000 C.2     1  UNL1        0.3349
     23 C           3.7320    0.7204    0.0000 C.2     1  UNL1        0.0293
     24 C           3.7320    1.7204    0.0000 C.3     1  UNL1       -0.0333
     25 C           2.8660    0.2204    0.0000 C.2     1  UNL1       -0.0774
     26 C           2.0000    0.7204    0.0000 C.3     1  UNL1       -0.0461
     27 H           6.5091   -1.7801    0.0000 H       1  UNL1        0.0414
     28 H           5.7932   -0.4696    0.0000 H       1  UNL1        0.0638
     29 H           8.8391   -0.4348    0.0000 H       1  UNL1        0.0744
     30 H           6.3301    0.8404    0.0000 H       1  UNL1        0.0763
     31 H           7.5062    0.1835    0.0000 H       1  UNL1        0.0339
     32 H           7.8501    0.8031    0.0000 H       1  UNL1        0.0346
     33 H           7.4516    0.1128    0.0000 H       1  UNL1        0.0346
     34 H           6.9841    2.3031    0.0000 H       1  UNL1        0.0349
     35 H           6.5856    1.6128    0.0000 H       1  UNL1        0.0349
     36 H           8.3722    0.6835    0.0000 H       1  UNL1        0.0234
     37 H           8.5991    1.5304    0.0000 H       1  UNL1        0.0234
     38 H           7.7522    1.7574    0.0000 H       1  UNL1        0.0234
     39 H           5.4641   -1.8996    0.0000 H       1  UNL1        0.2100
     40 H           9.4651    2.0304    0.0000 H       1  UNL1        0.0652
     41 H           6.1308   -2.8678    0.0000 H       1  UNL1        0.0540
     42 H           6.9301   -3.5850    0.0000 H       1  UNL1        0.0540
     43 H           9.4842   -0.3165    0.0000 H       1  UNL1        0.0274
     44 H          10.3312   -0.0896    0.0000 H       1  UNL1        0.0274
     45 H          10.1042    0.7574    0.0000 H       1  UNL1        0.0274
     46 H           4.3520    1.7204    0.0000 H       1  UNL1        0.0280
     47 H           3.7320    2.3404    0.0000 H       1  UNL1        0.0280
     48 H           3.1120    1.7204    0.0000 H       1  UNL1        0.0280
     49 H           2.8660   -0.3996    0.0000 H       1  UNL1        0.0574
     50 H           2.3100    1.2574    0.0000 H       1  UNL1        0.0272
     51 H           1.4631    1.0304    0.0000 H       1  UNL1        0.0272
     52 H           1.6900    0.1835    0.0000 H       1  UNL1        0.0272
@<TRIPOS>BOND
     1     1     9    1
     2     1    15    1
     3    10     2    1
     4     2    22    1
     5     8     3    1
     6     3    39    1
     7     4    15    2
     8     5    18    2
     9     6    22    2
    10     7     8    1
    11     7     9    1
    12     7    12    1
    13     7    27    1
    14     8    10    1
    15     8    28    1
    16     9    13    1
    17     9    29    1
    18    10    11    1
    19    10    30    1
    20    11    14    1
    21    11    16    1
    22    11    31    1
    23    12    15    1
    24    12    20    2
    25    13    17    1
    26    13    32    1
    27    13    33    1
    28    14    18    1
    29    14    34    1
    30    14    35    1
    31    16    36    1
    32    16    37    1
    33    16    38    1
    34    17    19    2
    35    17    21    1
    36    18    19    1
    37    19    40    1
    38    20    41    1
    39    20    42    1
    40    21    43    1
    41    21    44    1
    42    21    45    1
    43    22    23    1
    44    23    24    1
    45    23    25    2
    46    24    46    1
    47    24    47    1
    48    24    48    1
    49    25    26    1
    50    25    49    1
    51    26    50    1
    52    26    51    1
    53    26    52    1
