@<TRIPOS>MOLECULE
IMPHY007504
 54 59 0 0 0
SMALL
GASTEIGER

@<TRIPOS>ATOM
      1 O           6.0065    0.4194    0.0000 O.3     1  UNL1       -0.3240
      2 O           6.6849   -0.1217    0.0000 O.3     1  UNL1       -0.3626
      3 O           3.7484    1.8231    0.0000 O.3     1  UNL1       -0.4674
      4 O           3.2459    0.2639    0.0000 O.2     1  UNL1       -0.2500
      5 N           6.5837   -2.1683    0.0000 N.3     1  UNL1       -0.2905
      6 N           4.3830    1.2012    0.0000 N.pl3   1  UNL1       -0.3065
      7 C           4.8830   -0.9894    0.0000 C.3     1  UNL1        0.0741
      8 C           4.7762    0.1873    0.0000 C.3     1  UNL1        0.1314
      9 C           5.7840   -0.5555    0.0000 C.3     1  UNL1        0.1961
     10 C           6.6536   -1.1290    0.0000 C.3     1  UNL1        0.0662
     11 C           8.2686    2.0787    0.0000 C.3     1  UNL1        0.0037
     12 C           5.3830    1.2012    0.0000 C.3     1  UNL1        0.1456
     13 C           8.3870    0.0087    0.0000 C.3     1  UNL1       -0.0245
     14 C           4.7892   -2.0268    0.0000 C.3     1  UNL1       -0.0242
     15 C           3.9820   -0.5555    0.0000 C.ar    1  UNL1       -0.0137
     16 C           5.6452   -2.6202    0.0000 C.3     1  UNL1        0.0007
     17 C           9.2721    0.3146    0.0000 C.2     1  UNL1       -0.0554
     18 C           8.5237   -1.5719    0.0000 C.3     1  UNL1        0.0208
     19 C           4.0431    0.8675    0.0000 C.2     1  UNL1        0.3189
     20 C           3.7595    0.4194    0.0000 C.ar    1  UNL1        0.0353
     21 C           3.2295   -1.2757    0.0000 C.ar    1  UNL1       -0.0561
     22 C          10.2697    0.3843    0.0000 C.2     1  UNL1       -0.0864
     23 C           4.4577    2.1984    0.0000 C.3     1  UNL1        0.0031
     24 C           2.7690    0.7417    0.0000 C.ar    1  UNL1       -0.0403
     25 C           2.2318   -0.9764    0.0000 C.ar    1  UNL1       -0.0614
     26 C           2.0000    0.0391    0.0000 C.ar    1  UNL1       -0.0600
     27 C          10.8289   -0.4447    0.0000 C.3     1  UNL1       -0.0465
     28 C           2.7734    2.0456    0.0000 C.3     1  UNL1        0.0817
     29 H           7.3876   -1.5576    0.0000 H       1  UNL1        0.0516
     30 H           8.6825    2.8211    0.0000 H       1  UNL1        0.0359
     31 H           5.5721    2.0299    0.0000 H       1  UNL1        0.0822
     32 H           8.6320   -0.5609    0.0000 H       1  UNL1        0.0288
     33 H           8.9905    0.1510    0.0000 H       1  UNL1        0.0288
     34 H           4.1903   -1.8661    0.0000 H       1  UNL1        0.0288
     35 H           4.5284   -2.5893    0.0000 H       1  UNL1        0.0288
     36 H           5.2101   -3.0618    0.0000 H       1  UNL1        0.0427
     37 H           6.0059   -3.1245    0.0000 H       1  UNL1        0.0427
     38 H           8.5689   -2.1903    0.0000 H       1  UNL1        0.0473
     39 H           9.1365   -1.6660    0.0000 H       1  UNL1        0.0473
     40 H           6.7313    0.4966    0.0000 H       1  UNL1        0.2128
     41 H           3.3744   -1.8785    0.0000 H       1  UNL1        0.0621
     42 H          10.5415    0.9416    0.0000 H       1  UNL1        0.0569
     43 H           5.0760    2.1521    0.0000 H       1  UNL1        0.0428
     44 H           4.5041    2.8167    0.0000 H       1  UNL1        0.0428
     45 H           3.8395    2.2447    0.0000 H       1  UNL1        0.0428
     46 H           2.6380    1.3477    0.0000 H       1  UNL1        0.0636
     47 H           1.7789   -1.3998    0.0000 H       1  UNL1        0.0618
     48 H           1.4082    0.2242    0.0000 H       1  UNL1        0.0618
     49 H          10.3149   -0.7914    0.0000 H       1  UNL1        0.0272
     50 H          11.1756   -0.9587    0.0000 H       1  UNL1        0.0272
     51 H          11.3429   -0.0980    0.0000 H       1  UNL1        0.0272
     52 H           2.9114    2.6501    0.0000 H       1  UNL1        0.0661
     53 H           2.1690    2.1836    0.0000 H       1  UNL1        0.0661
     54 H           2.6354    1.4412    0.0000 H       1  UNL1        0.0661
@<TRIPOS>BOND
     1     1     9    1
     2     1    12    1
     3     9     2    1
     4     2    40    1
     5     3    19    1
     6     3    28    1
     7     4    19    2
     8     5    10    1
     9     5    16    1
    10     5    18    1
    11     6    12    1
    12     6    20    1
    13     6    23    1
    14     7     8    1
    15     7     9    1
    16     7    14    1
    17     7    15    1
    18     8    11    1
    19     8    12    1
    20     8    19    1
    21     9    10    1
    22    10    13    1
    23    10    29    1
    24    11    13    1
    25    11    17    1
    26    11    30    1
    27    12    31    1
    28    13    32    1
    29    13    33    1
    30    14    16    1
    31    14    34    1
    32    14    35    1
    33    15    20   ar
    34    15    21   ar
    35    16    36    1
    36    16    37    1
    37    17    18    1
    38    17    22    2
    39    18    38    1
    40    18    39    1
    41    20    24   ar
    42    21    25   ar
    43    21    41    1
    44    22    27    1
    45    22    42    1
    46    23    43    1
    47    23    44    1
    48    23    45    1
    49    24    26   ar
    50    24    46    1
    51    25    26   ar
    52    25    47    1
    53    26    48    1
    54    27    49    1
    55    27    50    1
    56    27    51    1
    57    28    52    1
    58    28    53    1
    59    28    54    1
