@<TRIPOS>MOLECULE
IMPHY014014
 29 32 0 0 0
SMALL
GASTEIGER

@<TRIPOS>ATOM
      1 O           3.3817   -0.1034    0.0000 O.2     1  UNL1       -0.4471
      2 O           5.1744   -1.8123    0.0000 O.2     1  UNL1       -0.4585
      3 O           6.7168    0.0637    0.0000 O.2     1  UNL1       -0.2862
      4 O           3.2527    2.0637    0.0000 O.2     1  UNL1       -0.2833
      5 O           7.6210    1.5606    0.0000 O.3     1  UNL1       -0.5060
      6 O           2.5662   -3.3803    0.0000 O.3     1  UNL1       -0.3902
      7 C           4.9848    0.0637    0.0000 C.ar    1  UNL1        0.1142
      8 C           4.7756   -0.9081    0.0000 C.ar    1  UNL1        0.1845
      9 C           4.1187    0.5637    0.0000 C.ar    1  UNL1        0.1901
     10 C           3.7868   -1.0112    0.0000 C.ar    1  UNL1        0.1797
     11 C           5.8508    1.5637    0.0000 C.ar    1  UNL1        0.0747
     12 C           5.8508    0.5637    0.0000 C.2     1  UNL1        0.2046
     13 C           4.9848    2.0637    0.0000 C.ar    1  UNL1        0.0397
     14 C           3.5830   -1.9781    0.0000 C.ar    1  UNL1        0.0584
     15 C           4.1187    1.5637    0.0000 C.2     1  UNL1        0.2296
     16 C           4.4388   -2.4722    0.0000 C.ar    1  UNL1        0.1016
     17 C           6.7608    2.0705    0.0000 C.ar    1  UNL1        0.1284
     18 C           2.6698   -2.3857    0.0000 C.3     1  UNL1        0.0757
     19 C           4.9687    3.1052    0.0000 C.ar    1  UNL1       -0.0499
     20 C           6.7688    3.1121    0.0000 C.ar    1  UNL1       -0.0194
     21 C           5.8667    3.6330    0.0000 C.ar    1  UNL1       -0.0576
     22 H           4.5031   -3.0889    0.0000 H       1  UNL1        0.1034
     23 H           2.5193   -1.7842    0.0000 H       1  UNL1        0.0609
     24 H           2.0514   -2.4294    0.0000 H       1  UNL1        0.0609
     25 H           4.4282    3.4090    0.0000 H       1  UNL1        0.0625
     26 H           7.3069    3.4201    0.0000 H       1  UNL1        0.0654
     27 H           5.8643    4.2529    0.0000 H       1  UNL1        0.0619
     28 H           8.1614    1.8643    0.0000 H       1  UNL1        0.2922
     29 H           2.0000   -3.6330    0.0000 H       1  UNL1        0.2099
@<TRIPOS>BOND
     1     1     9   ar
     2     1    10   ar
     3     2     8   ar
     4     2    16   ar
     5     3    12    2
     6     4    15    2
     7     5    17    1
     8     5    28    1
     9     6    18    1
    10     6    29    1
    11     7     8   ar
    12     7     9   ar
    13     7    12    1
    14     8    10   ar
    15     9    15    1
    16    10    14   ar
    17    11    12    1
    18    11    13   ar
    19    11    17   ar
    20    13    15    1
    21    13    19   ar
    22    14    16   ar
    23    14    18    1
    24    16    22    1
    25    17    20   ar
    26    18    23    1
    27    18    24    1
    28    19    21   ar
    29    19    25    1
    30    20    21   ar
    31    20    26    1
    32    21    27    1
