@<TRIPOS>MOLECULE
IMPHY012017
 9 8 0 0 0
SMALL
GASTEIGER

@<TRIPOS>ATOM
      1 CL          2.0000    0.2500    0.0000 Cl      1  UNL1       -0.1231
      2 O           4.5981   -0.2500    0.0000 O.3     1  UNL1       -0.3938
      3 C           3.7320    0.2500    0.0000 C.3     1  UNL1        0.0576
      4 C           2.8660   -0.2500    0.0000 C.3     1  UNL1        0.0457
      5 H           4.1306    0.7249    0.0000 H       1  UNL1        0.0569
      6 H           3.3335    0.7249    0.0000 H       1  UNL1        0.0569
      7 H           2.4675   -0.7249    0.0000 H       1  UNL1        0.0452
      8 H           3.2646   -0.7249    0.0000 H       1  UNL1        0.0452
      9 H           5.1350    0.0600    0.0000 H       1  UNL1        0.2094
@<TRIPOS>BOND
     1     1     4    1
     2     2     3    1
     3     2     9    1
     4     3     4    1
     5     3     5    1
     6     3     6    1
     7     4     7    1
     8     4     8    1
