@<TRIPOS>MOLECULE
IMPHY010669
 32 34 0 0 0
SMALL
GASTEIGER

@<TRIPOS>ATOM
      1 O           4.8936   -2.0894    0.0000 O.3     1  UNL1       -0.4853
      2 O           2.3100   -1.2846    0.0000 O.3     1  UNL1       -0.3855
      3 O           6.6898    0.7569    0.0000 O.2     1  UNL1       -0.4218
      4 O           7.5840    2.2846    0.0000 O.2     1  UNL1       -0.2452
      5 C           4.3100   -1.2846    0.0000 C.3     1  UNL1        0.1323
      6 C           3.3100   -1.2846    0.0000 C.3     1  UNL1        0.0974
      7 C           4.8936   -0.4799    0.0000 C.3     1  UNL1        0.0192
      8 C           5.8398   -0.7846    0.0000 C.ar    1  UNL1        0.0407
      9 C           5.8398   -1.7846    0.0000 C.ar    1  UNL1        0.1279
     10 C           3.3100   -2.2846    0.0000 C.3     1  UNL1       -0.0328
     11 C           3.3100   -0.2846    0.0000 C.3     1  UNL1       -0.0328
     12 C           6.7058   -0.2846    0.0000 C.ar    1  UNL1        0.1458
     13 C           6.7058   -2.2846    0.0000 C.ar    1  UNL1       -0.0189
     14 C           7.5719   -0.7846    0.0000 C.ar    1  UNL1        0.0181
     15 C           7.5719   -1.7846    0.0000 C.ar    1  UNL1       -0.0476
     16 C           8.4819   -0.2778    0.0000 C.ar    1  UNL1       -0.0443
     17 C           7.5878    1.2846    0.0000 C.ar    1  UNL1        0.3372
     18 C           8.4899    0.7638    0.0000 C.ar    1  UNL1        0.0236
     19 H           3.9238   -2.0418    0.0000 H       1  UNL1        0.0765
     20 H           5.1446    0.0870    0.0000 H       1  UNL1        0.0352
     21 H           4.3562   -0.1707    0.0000 H       1  UNL1        0.0352
     22 H           2.6900   -2.2846    0.0000 H       1  UNL1        0.0258
     23 H           3.3100   -2.9046    0.0000 H       1  UNL1        0.0258
     24 H           3.9300   -2.2846    0.0000 H       1  UNL1        0.0258
     25 H           3.9300   -0.2846    0.0000 H       1  UNL1        0.0258
     26 H           3.3100    0.3354    0.0000 H       1  UNL1        0.0258
     27 H           2.6900   -0.2846    0.0000 H       1  UNL1        0.0258
     28 H           6.7058   -2.9046    0.0000 H       1  UNL1        0.0654
     29 H           2.0000   -1.8216    0.0000 H       1  UNL1        0.2103
     30 H           8.1088   -2.0946    0.0000 H       1  UNL1        0.0626
     31 H           9.0152   -0.5940    0.0000 H       1  UNL1        0.0627
     32 H           9.0280    1.0718    0.0000 H       1  UNL1        0.0689
@<TRIPOS>BOND
     1     1     5    1
     2     1     9    1
     3     2     6    1
     4     2    29    1
     5     3    12   ar
     6     3    17   ar
     7     4    17    2
     8     5     6    1
     9     5     7    1
    10     5    19    1
    11     6    10    1
    12     6    11    1
    13     7     8    1
    14     7    20    1
    15     7    21    1
    16     8     9   ar
    17     8    12   ar
    18     9    13   ar
    19    10    22    1
    20    10    23    1
    21    10    24    1
    22    11    25    1
    23    11    26    1
    24    11    27    1
    25    12    14   ar
    26    13    15   ar
    27    13    28    1
    28    14    15   ar
    29    14    16   ar
    30    15    30    1
    31    16    18   ar
    32    16    31    1
    33    17    18   ar
    34    18    32    1
