@<TRIPOS>MOLECULE
IMPHY013362
 57 59 0 0 0
SMALL
GASTEIGER

@<TRIPOS>ATOM
      1 O          11.2251   -1.0347    0.0000 O.3     1  UNL1       -0.4776
      2 O          15.1312   -0.5324    0.0000 O.3     1  UNL1       -0.3875
      3 O           9.4651    2.0000    0.0000 O.3     1  UNL1       -0.5053
      4 O           9.4651   -2.0000    0.0000 O.3     1  UNL1       -0.5033
      5 O           7.7331    2.0000    0.0000 O.2     1  UNL1       -0.2872
      6 O           2.5369   -1.0000    0.0000 O.3     1  UNL1       -0.5068
      7 C          12.1312   -0.5208    0.0000 C.3     1  UNL1        0.1266
      8 C          13.1312   -0.5247    0.0000 C.3     1  UNL1       -0.0068
      9 C          13.6345    0.3394    0.0000 C.3     1  UNL1       -0.0191
     10 C          12.1312    0.5208    0.0000 C.2     1  UNL1       -0.0405
     11 C          12.6278   -1.3888    0.0000 C.3     1  UNL1       -0.0212
     12 C          14.6345    0.3356    0.0000 C.3     1  UNL1        0.0759
     13 C          10.3312   -0.5000    0.0000 C.ar    1  UNL1        0.1735
     14 C          10.3312    0.5000    0.0000 C.ar    1  UNL1        0.0622
     15 C          11.2251    1.0347    0.0000 C.2     1  UNL1       -0.0477
     16 C          15.1378    1.1997    0.0000 C.2     1  UNL1       -0.0516
     17 C           9.4651   -1.0000    0.0000 C.ar    1  UNL1        0.1600
     18 C           9.4651    1.0000    0.0000 C.ar    1  UNL1        0.1385
     19 C           8.5991    0.5000    0.0000 C.ar    1  UNL1        0.0673
     20 C           8.5991   -0.5000    0.0000 C.ar    1  UNL1       -0.0022
     21 C          16.1378    1.1958    0.0000 C.3     1  UNL1       -0.0416
     22 C          14.6412    2.0676    0.0000 C.2     1  UNL1       -0.0973
     23 C           7.7331    1.0000    0.0000 C.2     1  UNL1        0.1897
     24 C           6.8671    0.5000    0.0000 C.2     1  UNL1       -0.0137
     25 C           6.0010    1.0000    0.0000 C.2     1  UNL1       -0.0510
     26 C           5.1350    0.5000    0.0000 C.ar    1  UNL1       -0.0247
     27 C           5.1350   -0.5000    0.0000 C.ar    1  UNL1       -0.0511
     28 C           4.2690    1.0000    0.0000 C.ar    1  UNL1       -0.0511
     29 C           4.2690   -1.0000    0.0000 C.ar    1  UNL1       -0.0196
     30 C           3.4030    0.5000    0.0000 C.ar    1  UNL1       -0.0196
     31 C           3.4030   -0.5000    0.0000 C.ar    1  UNL1        0.1169
     32 H          13.0212   -1.1348    0.0000 H       1  UNL1        0.0308
     33 H          13.7130   -0.7390    0.0000 H       1  UNL1        0.0308
     34 H          13.7445    0.9496    0.0000 H       1  UNL1        0.0295
     35 H          13.0527    0.5537    0.0000 H       1  UNL1        0.0295
     36 H          12.6669    0.8329    0.0000 H       1  UNL1        0.0611
     37 H          12.0897   -1.6967    0.0000 H       1  UNL1        0.0271
     38 H          12.9358   -1.9269    0.0000 H       1  UNL1        0.0271
     39 H          13.1660   -1.0808    0.0000 H       1  UNL1        0.0271
     40 H          15.2545    0.3332    0.0000 H       1  UNL1        0.0640
     41 H          11.2179    1.6546    0.0000 H       1  UNL1        0.0624
     42 H           8.0622   -0.8100    0.0000 H       1  UNL1        0.0663
     43 H          15.7511   -0.5348    0.0000 H       1  UNL1        0.2102
     44 H          16.1354    0.5758    0.0000 H       1  UNL1        0.0275
     45 H          16.7578    1.1934    0.0000 H       1  UNL1        0.0275
     46 H          16.1402    1.8158    0.0000 H       1  UNL1        0.0275
     47 H          14.9532    2.6033    0.0000 H       1  UNL1        0.0535
     48 H          14.0212    2.0700    0.0000 H       1  UNL1        0.0535
     49 H          10.0021    2.3100    0.0000 H       1  UNL1        0.2922
     50 H           8.9282   -2.3100    0.0000 H       1  UNL1        0.2923
     51 H           6.8671   -0.1200    0.0000 H       1  UNL1        0.0656
     52 H           6.0010    1.6200    0.0000 H       1  UNL1        0.0625
     53 H           5.6720   -0.8100    0.0000 H       1  UNL1        0.0625
     54 H           4.2690    1.6200    0.0000 H       1  UNL1        0.0625
     55 H           4.2690   -1.6200    0.0000 H       1  UNL1        0.0654
     56 H           2.8660    0.8100    0.0000 H       1  UNL1        0.0654
     57 H           2.0000   -0.6900    0.0000 H       1  UNL1        0.2921
@<TRIPOS>BOND
     1     1     7    1
     2     1    13    1
     3     2    12    1
     4     2    43    1
     5     3    18    1
     6     3    49    1
     7     4    17    1
     8     4    50    1
     9     5    23    2
    10     6    31    1
    11     6    57    1
    12     7     8    1
    13     7    10    1
    14     7    11    1
    15     8     9    1
    16     8    32    1
    17     8    33    1
    18     9    12    1
    19     9    34    1
    20     9    35    1
    21    10    15    2
    22    10    36    1
    23    11    37    1
    24    11    38    1
    25    11    39    1
    26    12    16    1
    27    12    40    1
    28    13    14   ar
    29    13    17   ar
    30    14    15    1
    31    14    18   ar
    32    15    41    1
    33    16    21    1
    34    16    22    2
    35    17    20   ar
    36    18    19   ar
    37    19    20   ar
    38    19    23    1
    39    20    42    1
    40    21    44    1
    41    21    45    1
    42    21    46    1
    43    22    47    1
    44    22    48    1
    45    23    24    1
    46    24    25    2
    47    24    51    1
    48    25    26    1
    49    25    52    1
    50    26    27   ar
    51    26    28   ar
    52    27    29   ar
    53    27    53    1
    54    28    30   ar
    55    28    54    1
    56    29    31   ar
    57    29    55    1
    58    30    31   ar
    59    30    56    1
