@<TRIPOS>MOLECULE
IMPHY005504
 26 26 0 0 0
SMALL
GASTEIGER

@<TRIPOS>ATOM
      1 O           4.5981    2.5000    0.0000 O.3     1  UNL1       -0.3831
      2 O           3.7320   -2.0000    0.0000 O.3     1  UNL1       -0.4260
      3 O           2.0000   -2.0000    0.0000 O.2     1  UNL1       -0.2507
      4 C           3.7320    1.0000    0.0000 C.ar    1  UNL1       -0.0151
      5 C           3.7320    2.0000    0.0000 C.3     1  UNL1        0.0981
      6 C           2.8660    0.5000    0.0000 C.ar    1  UNL1       -0.0523
      7 C           4.5981    0.5000    0.0000 C.ar    1  UNL1       -0.0523
      8 C           3.7320   -1.0000    0.0000 C.ar    1  UNL1        0.1316
      9 C           2.8660   -0.5000    0.0000 C.ar    1  UNL1       -0.0189
     10 C           4.5981   -0.5000    0.0000 C.ar    1  UNL1       -0.0189
     11 C           2.8660    2.5000    0.0000 C.2     1  UNL1       -0.0586
     12 C           2.8660    3.5000    0.0000 C.2     1  UNL1       -0.0999
     13 C           2.8660   -2.5000    0.0000 C.2     1  UNL1        0.3092
     14 C           2.8660   -3.5000    0.0000 C.3     1  UNL1        0.0336
     15 H           3.7320    2.6200    0.0000 H       1  UNL1        0.0688
     16 H           2.3291    0.8100    0.0000 H       1  UNL1        0.0622
     17 H           5.1350    0.8100    0.0000 H       1  UNL1        0.0622
     18 H           2.3291   -0.8100    0.0000 H       1  UNL1        0.0654
     19 H           5.1350   -0.8100    0.0000 H       1  UNL1        0.0654
     20 H           2.3291    2.1900    0.0000 H       1  UNL1        0.0595
     21 H           4.5981    3.1200    0.0000 H       1  UNL1        0.2107
     22 H           3.4030    3.8100    0.0000 H       1  UNL1        0.0533
     23 H           2.3291    3.8100    0.0000 H       1  UNL1        0.0533
     24 H           2.2460   -3.5000    0.0000 H       1  UNL1        0.0342
     25 H           2.8660   -4.1200    0.0000 H       1  UNL1        0.0342
     26 H           3.4860   -3.5000    0.0000 H       1  UNL1        0.0342
@<TRIPOS>BOND
     1     5     1    1
     2     1    21    1
     3     2     8    1
     4     2    13    1
     5     3    13    2
     6     4     5    1
     7     4     6   ar
     8     4     7   ar
     9     5    11    1
    10     5    15    1
    11     6     9   ar
    12     6    16    1
    13     7    10   ar
    14     7    17    1
    15     8     9   ar
    16     8    10   ar
    17     9    18    1
    18    10    19    1
    19    11    12    2
    20    11    20    1
    21    12    22    1
    22    12    23    1
    23    13    14    1
    24    14    24    1
    25    14    25    1
    26    14    26    1
