@<TRIPOS>MOLECULE
IMPHY004981
 87 87 0 0 0
SMALL
GASTEIGER

@<TRIPOS>ATOM
      1 O           6.0010   -5.0950    0.0000 O.3     1  UNL1       -0.4616
      2 O           4.2690   -5.0950    0.0000 O.2     1  UNL1       -0.2456
      3 O           2.5369  -10.0950    0.0000 O.3     1  UNL1       -0.5033
      4 O           4.2690  -11.0950    0.0000 O.3     1  UNL1       -0.5033
      5 C          10.3312    3.4050    0.0000 C.3     1  UNL1       -0.0531
      6 C          11.1972    3.9050    0.0000 C.3     1  UNL1       -0.0531
      7 C          10.3312    2.4050    0.0000 C.3     1  UNL1       -0.0531
      8 C          11.1972    4.9050    0.0000 C.3     1  UNL1       -0.0531
      9 C           9.4651    1.9050    0.0000 C.3     1  UNL1       -0.0531
     10 C          12.0632    5.4050    0.0000 C.3     1  UNL1       -0.0531
     11 C           9.4651    0.9050    0.0000 C.3     1  UNL1       -0.0531
     12 C          12.0632    6.4050    0.0000 C.3     1  UNL1       -0.0531
     13 C           8.5991    0.4050    0.0000 C.3     1  UNL1       -0.0531
     14 C          12.9292    6.9050    0.0000 C.3     1  UNL1       -0.0531
     15 C           8.5991   -0.5950    0.0000 C.3     1  UNL1       -0.0531
     16 C          12.9292    7.9050    0.0000 C.3     1  UNL1       -0.0531
     17 C           7.7331   -1.0950    0.0000 C.3     1  UNL1       -0.0531
     18 C          13.7953    8.4050    0.0000 C.3     1  UNL1       -0.0531
     19 C           7.7331   -2.0950    0.0000 C.3     1  UNL1       -0.0530
     20 C          13.7953    9.4050    0.0000 C.3     1  UNL1       -0.0531
     21 C           6.8671   -2.5950    0.0000 C.3     1  UNL1       -0.0500
     22 C          14.6613    9.9050    0.0000 C.3     1  UNL1       -0.0533
     23 C           6.8671   -3.5950    0.0000 C.3     1  UNL1       -0.0185
     24 C          14.6613   10.9050    0.0000 C.3     1  UNL1       -0.0559
     25 C           6.0010   -4.0950    0.0000 C.3     1  UNL1        0.0928
     26 C          15.5273   11.4050    0.0000 C.3     1  UNL1       -0.0653
     27 C           5.1350   -5.5950    0.0000 C.2     1  UNL1        0.3319
     28 C           5.1350   -6.5950    0.0000 C.2     1  UNL1        0.0231
     29 C           4.2690   -7.0950    0.0000 C.2     1  UNL1       -0.0477
     30 C           4.2690   -8.0950    0.0000 C.ar    1  UNL1       -0.0211
     31 C           3.4030   -8.5950    0.0000 C.ar    1  UNL1       -0.0094
     32 C           5.1350   -8.5950    0.0000 C.ar    1  UNL1       -0.0509
     33 C           3.4030   -9.5950    0.0000 C.ar    1  UNL1        0.1588
     34 C           5.1350   -9.5950    0.0000 C.ar    1  UNL1       -0.0160
     35 C           4.2690  -10.0950    0.0000 C.ar    1  UNL1        0.1582
     36 H          10.1191    3.9876    0.0000 H       1  UNL1        0.0265
     37 H           9.7206    3.2973    0.0000 H       1  UNL1        0.0265
     38 H          11.4092    3.3224    0.0000 H       1  UNL1        0.0265
     39 H          11.8078    4.0127    0.0000 H       1  UNL1        0.0265
     40 H          10.5432    1.8224    0.0000 H       1  UNL1        0.0265
     41 H          10.9417    2.5127    0.0000 H       1  UNL1        0.0265
     42 H          10.9851    5.4876    0.0000 H       1  UNL1        0.0265
     43 H          10.5866    4.7973    0.0000 H       1  UNL1        0.0265
     44 H           9.2531    2.4876    0.0000 H       1  UNL1        0.0265
     45 H           8.8546    1.7973    0.0000 H       1  UNL1        0.0265
     46 H          12.2753    4.8224    0.0000 H       1  UNL1        0.0265
     47 H          12.6738    5.5127    0.0000 H       1  UNL1        0.0265
     48 H           9.6772    0.3224    0.0000 H       1  UNL1        0.0265
     49 H          10.0757    1.0127    0.0000 H       1  UNL1        0.0265
     50 H          11.8512    6.9876    0.0000 H       1  UNL1        0.0265
     51 H          11.4526    6.2973    0.0000 H       1  UNL1        0.0265
     52 H           8.3871    0.9876    0.0000 H       1  UNL1        0.0265
     53 H           7.9885    0.2973    0.0000 H       1  UNL1        0.0265
     54 H          13.1413    6.3224    0.0000 H       1  UNL1        0.0265
     55 H          13.5398    7.0127    0.0000 H       1  UNL1        0.0265
     56 H           8.8112   -1.1776    0.0000 H       1  UNL1        0.0265
     57 H           9.2097   -0.4873    0.0000 H       1  UNL1        0.0265
     58 H          12.7172    8.4876    0.0000 H       1  UNL1        0.0265
     59 H          12.3187    7.7973    0.0000 H       1  UNL1        0.0265
     60 H           7.5210   -0.5124    0.0000 H       1  UNL1        0.0265
     61 H           7.1225   -1.2027    0.0000 H       1  UNL1        0.0265
     62 H          14.0073    7.8224    0.0000 H       1  UNL1        0.0265
     63 H          14.4058    8.5127    0.0000 H       1  UNL1        0.0265
     64 H           7.9451   -2.6776    0.0000 H       1  UNL1        0.0265
     65 H           8.3437   -1.9873    0.0000 H       1  UNL1        0.0265
     66 H          13.5832    9.9876    0.0000 H       1  UNL1        0.0265
     67 H          13.1847    9.2973    0.0000 H       1  UNL1        0.0265
     68 H           6.6550   -2.0124    0.0000 H       1  UNL1        0.0266
     69 H           6.2565   -2.7027    0.0000 H       1  UNL1        0.0266
     70 H          14.8733    9.3224    0.0000 H       1  UNL1        0.0265
     71 H          15.2719   10.0127    0.0000 H       1  UNL1        0.0265
     72 H           7.0791   -4.1776    0.0000 H       1  UNL1        0.0298
     73 H           7.4776   -3.4873    0.0000 H       1  UNL1        0.0298
     74 H          14.4492   11.4876    0.0000 H       1  UNL1        0.0263
     75 H          14.0507   10.7973    0.0000 H       1  UNL1        0.0263
     76 H           5.7890   -3.5124    0.0000 H       1  UNL1        0.0697
     77 H           5.3905   -4.2027    0.0000 H       1  UNL1        0.0697
     78 H          15.8373   10.8681    0.0000 H       1  UNL1        0.0230
     79 H          16.0643   11.7150    0.0000 H       1  UNL1        0.0230
     80 H          15.2173   11.9419    0.0000 H       1  UNL1        0.0230
     81 H           5.6720   -6.9050    0.0000 H       1  UNL1        0.0689
     82 H           3.7320   -6.7850    0.0000 H       1  UNL1        0.0626
     83 H           2.8660   -8.2850    0.0000 H       1  UNL1        0.0661
     84 H           5.6720   -8.2850    0.0000 H       1  UNL1        0.0625
     85 H           5.6720   -9.9050    0.0000 H       1  UNL1        0.0655
     86 H           2.0000   -9.7850    0.0000 H       1  UNL1        0.2923
     87 H           4.8059  -11.4050    0.0000 H       1  UNL1        0.2923
@<TRIPOS>BOND
     1     1    25    1
     2     1    27    1
     3     2    27    2
     4     3    33    1
     5     3    86    1
     6     4    35    1
     7     4    87    1
     8     5     6    1
     9     5     7    1
    10     5    36    1
    11     5    37    1
    12     6     8    1
    13     6    38    1
    14     6    39    1
    15     7     9    1
    16     7    40    1
    17     7    41    1
    18     8    10    1
    19     8    42    1
    20     8    43    1
    21     9    11    1
    22     9    44    1
    23     9    45    1
    24    10    12    1
    25    10    46    1
    26    10    47    1
    27    11    13    1
    28    11    48    1
    29    11    49    1
    30    12    14    1
    31    12    50    1
    32    12    51    1
    33    13    15    1
    34    13    52    1
    35    13    53    1
    36    14    16    1
    37    14    54    1
    38    14    55    1
    39    15    17    1
    40    15    56    1
    41    15    57    1
    42    16    18    1
    43    16    58    1
    44    16    59    1
    45    17    19    1
    46    17    60    1
    47    17    61    1
    48    18    20    1
    49    18    62    1
    50    18    63    1
    51    19    21    1
    52    19    64    1
    53    19    65    1
    54    20    22    1
    55    20    66    1
    56    20    67    1
    57    21    23    1
    58    21    68    1
    59    21    69    1
    60    22    24    1
    61    22    70    1
    62    22    71    1
    63    23    25    1
    64    23    72    1
    65    23    73    1
    66    24    26    1
    67    24    74    1
    68    24    75    1
    69    25    76    1
    70    25    77    1
    71    26    78    1
    72    26    79    1
    73    26    80    1
    74    27    28    1
    75    28    29    2
    76    28    81    1
    77    29    30    1
    78    29    82    1
    79    30    31   ar
    80    30    32   ar
    81    31    33   ar
    82    31    83    1
    83    32    34   ar
    84    32    84    1
    85    33    35   ar
    86    34    35   ar
    87    34    85    1
