@<TRIPOS>MOLECULE
IMPHY014511
 39 41 0 0 0
SMALL
GASTEIGER

@<TRIPOS>ATOM
      1 C           3.8660   -0.4519    0.0000 C.3     1  UNL1       -0.0051
      2 C           3.0000    0.0481    0.0000 C.3     1  UNL1       -0.0260
      3 C           3.0000    1.0481    0.0000 C.3     1  UNL1       -0.0248
      4 C           3.8660    1.5481    0.0000 C.3     1  UNL1       -0.0147
      5 C           3.6568   -1.4238    0.0000 C.3     1  UNL1       -0.0345
      6 C           4.7320    0.0481    0.0000 C.3     1  UNL1       -0.0428
      7 C           2.2630   -0.6190    0.0000 C.3     1  UNL1       -0.0486
      8 C           4.7320    1.0481    0.0000 C.3     1  UNL1       -0.0452
      9 C           2.6681   -1.5268    0.0000 C.3     1  UNL1       -0.0494
     10 C           3.4660    0.1481    0.0000 C.2     1  UNL1       -0.0780
     11 C           3.4660    0.9481    0.0000 C.2     1  UNL1       -0.0724
     12 C           2.2340    1.6908    0.0000 C.3     1  UNL1       -0.0590
     13 C           2.0000    1.0481    0.0000 C.3     1  UNL1       -0.0590
     14 C           4.3247   -2.1681    0.0000 C.3     1  UNL1       -0.0616
     15 C           3.0434    1.8544    0.0000 C.3     1  UNL1       -0.0435
     16 H           2.4333    0.2995    0.0000 H       1  UNL1        0.0315
     17 H           3.8660    2.3981    0.0000 H       1  UNL1        0.0351
     18 H           4.2560   -1.2646    0.0000 H       1  UNL1        0.0307
     19 H           4.9441   -0.5346    0.0000 H       1  UNL1        0.0274
     20 H           5.3426    0.1557    0.0000 H       1  UNL1        0.0274
     21 H           1.8976   -0.1182    0.0000 H       1  UNL1        0.0268
     22 H           1.7265   -0.9298    0.0000 H       1  UNL1        0.0268
     23 H           5.3426    0.9404    0.0000 H       1  UNL1        0.0271
     24 H           4.9441    1.6307    0.0000 H       1  UNL1        0.0271
     25 H           2.0785   -1.7186    0.0000 H       1  UNL1        0.0268
     26 H           2.7968   -2.1333    0.0000 H       1  UNL1        0.0268
     27 H           2.8726   -0.0316    0.0000 H       1  UNL1        0.0577
     28 H           2.6325    2.1658    0.0000 H       1  UNL1        0.0235
     29 H           1.7590    2.0894    0.0000 H       1  UNL1        0.0235
     30 H           1.8354    1.2159    0.0000 H       1  UNL1        0.0235
     31 H           2.0000    1.6681    0.0000 H       1  UNL1        0.0235
     32 H           1.3800    1.0481    0.0000 H       1  UNL1        0.0235
     33 H           2.0000    0.4281    0.0000 H       1  UNL1        0.0235
     34 H           3.8632   -2.5821    0.0000 H       1  UNL1        0.0233
     35 H           4.7387   -2.6295    0.0000 H       1  UNL1        0.0233
     36 H           4.7861   -1.7540    0.0000 H       1  UNL1        0.0233
     37 H           3.6053    2.1164    0.0000 H       1  UNL1        0.0274
     38 H           2.7814    2.4163    0.0000 H       1  UNL1        0.0274
     39 H           2.4815    1.5923    0.0000 H       1  UNL1        0.0274
@<TRIPOS>BOND
     1     1     2    1
     2     1     5    1
     3     1     6    1
     4     1    10    1
     5     2     3    1
     6     2     7    1
     7     2    16    1
     8     3     4    1
     9     3    12    1
    10     3    13    1
    11     4     8    1
    12     4    11    1
    13     4    17    1
    14     5     9    1
    15     5    14    1
    16     5    18    1
    17     6     8    1
    18     6    19    1
    19     6    20    1
    20     7     9    1
    21     7    21    1
    22     7    22    1
    23     8    23    1
    24     8    24    1
    25     9    25    1
    26     9    26    1
    27    10    11    2
    28    10    27    1
    29    11    15    1
    30    12    28    1
    31    12    29    1
    32    12    30    1
    33    13    31    1
    34    13    32    1
    35    13    33    1
    36    14    34    1
    37    14    35    1
    38    14    36    1
    39    15    37    1
    40    15    38    1
    41    15    39    1
