@<TRIPOS>MOLECULE
IMPHY007871
 51 53 0 0 0
SMALL
GASTEIGER

@<TRIPOS>ATOM
      1 O           5.6943   -1.6954    0.0000 O.3     1  UNL1       -0.4572
      2 O           6.1584    3.0005    0.0000 O.3     1  UNL1       -0.4575
      3 O           3.5605   -2.0807    0.0000 O.3     1  UNL1       -0.4578
      4 O           7.8983    3.3587    0.0000 O.2     1  UNL1       -0.2453
      5 O           4.4951   -2.9452    0.0000 O.2     1  UNL1       -0.2512
      6 O           2.0000   -1.3292    0.0000 O.2     1  UNL1       -0.2512
      7 C           5.1087   -0.0183    0.0000 C.3     1  UNL1        0.0124
      8 C           4.2077    0.4156    0.0000 C.3     1  UNL1       -0.0260
      9 C           4.9727   -1.0030    0.0000 C.3     1  UNL1        0.1453
     10 C           3.9852    1.3905    0.0000 C.3     1  UNL1       -0.0370
     11 C           6.0096    0.4156    0.0000 C.3     1  UNL1       -0.0334
     12 C           3.5226   -0.3047    0.0000 C.3     1  UNL1       -0.0084
     13 C           3.9944   -1.1797    0.0000 C.3     1  UNL1        0.1405
     14 C           6.2322    1.3905    0.0000 C.3     1  UNL1        0.0281
     15 C           4.6087    2.1723    0.0000 C.3     1  UNL1       -0.0122
     16 C           5.6087    2.1723    0.0000 C.3     1  UNL1        0.1106
     17 C           6.0096   -0.4522    0.0000 C.3     1  UNL1       -0.0558
     18 C           3.0102    1.6130    0.0000 C.3     1  UNL1       -0.0620
     19 C           7.1619    1.7422    0.0000 C.2     1  UNL1        0.0361
     20 C           7.1165    2.7352    0.0000 C.2     1  UNL1        0.3353
     21 C           7.9975    1.1928    0.0000 C.2     1  UNL1       -0.0883
     22 C           5.4555   -2.6664    0.0000 C.2     1  UNL1        0.3043
     23 C           2.5633   -2.1554    0.0000 C.2     1  UNL1        0.3043
     24 C           6.1771   -3.3587    0.0000 C.3     1  UNL1        0.0332
     25 C           2.1294   -3.0564    0.0000 C.3     1  UNL1        0.0332
     26 H           3.3880    0.6406    0.0000 H       1  UNL1        0.0311
     27 H           4.7936   -1.5966    0.0000 H       1  UNL1        0.0777
     28 H           3.7804    1.9757    0.0000 H       1  UNL1        0.0302
     29 H           6.1476   -0.1889    0.0000 H       1  UNL1        0.0279
     30 H           6.6296    0.4156    0.0000 H       1  UNL1        0.0279
     31 H           3.1207    0.1674    0.0000 H       1  UNL1        0.0305
     32 H           3.0108   -0.6547    0.0000 H       1  UNL1        0.0305
     33 H           4.3698   -1.6731    0.0000 H       1  UNL1        0.0772
     34 H           6.8730    0.8321    0.0000 H       1  UNL1        0.0387
     35 H           4.7466    2.7768    0.0000 H       1  UNL1        0.0304
     36 H           4.0501    2.4413    0.0000 H       1  UNL1        0.0304
     37 H           5.2068    2.9214    0.0000 H       1  UNL1        0.0740
     38 H           5.7406   -1.0108    0.0000 H       1  UNL1        0.0236
     39 H           6.5682   -0.7212    0.0000 H       1  UNL1        0.0236
     40 H           6.2786    0.1064    0.0000 H       1  UNL1        0.0236
     41 H           3.1482    2.2175    0.0000 H       1  UNL1        0.0233
     42 H           2.4058    1.7510    0.0000 H       1  UNL1        0.0233
     43 H           2.8723    1.0086    0.0000 H       1  UNL1        0.0233
     44 H           7.9614    0.5738    0.0000 H       1  UNL1        0.0540
     45 H           8.5515    1.4711    0.0000 H       1  UNL1        0.0540
     46 H           5.7479   -3.8061    0.0000 H       1  UNL1        0.0342
     47 H           6.6245   -3.7880    0.0000 H       1  UNL1        0.0342
     48 H           6.6063   -2.9114    0.0000 H       1  UNL1        0.0342
     49 H           1.5708   -2.7874    0.0000 H       1  UNL1        0.0342
     50 H           1.8604   -3.6150    0.0000 H       1  UNL1        0.0342
     51 H           2.6880   -3.3254    0.0000 H       1  UNL1        0.0342
@<TRIPOS>BOND
     1     9     1    1
     2     1    22    1
     3     2    16    1
     4     2    20    1
     5    13     3    1
     6     3    23    1
     7     4    20    2
     8     5    22    2
     9     6    23    2
    10     7     8    1
    11     7     9    1
    12     7    11    1
    13     7    17    1
    14     8    10    1
    15     8    12    1
    16     8    26    1
    17     9    13    1
    18     9    27    1
    19    10    15    1
    20    10    18    1
    21    10    28    1
    22    11    14    1
    23    11    29    1
    24    11    30    1
    25    12    13    1
    26    12    31    1
    27    12    32    1
    28    13    33    1
    29    14    16    1
    30    14    19    1
    31    14    34    1
    32    15    16    1
    33    15    35    1
    34    15    36    1
    35    16    37    1
    36    17    38    1
    37    17    39    1
    38    17    40    1
    39    18    41    1
    40    18    42    1
    41    18    43    1
    42    19    20    1
    43    19    21    2
    44    21    44    1
    45    21    45    1
    46    22    24    1
    47    23    25    1
    48    24    46    1
    49    24    47    1
    50    24    48    1
    51    25    49    1
    52    25    50    1
    53    25    51    1
