@<TRIPOS>MOLECULE
IMPHY015239
 47 46 0 0 0
SMALL
GASTEIGER

@<TRIPOS>ATOM
      1 C           6.3301    0.2500    0.0000 C.3     1  UNL1       -0.0439
      2 C           7.1962    0.7500    0.0000 C.3     1  UNL1       -0.0505
      3 C           5.4641    0.7500    0.0000 C.3     1  UNL1       -0.0505
      4 C           8.0622    0.2500    0.0000 C.3     1  UNL1       -0.0526
      5 C           8.9282    0.7500    0.0000 C.3     1  UNL1       -0.0505
      6 C           4.5981    0.2500    0.0000 C.3     1  UNL1       -0.0526
      7 C           9.7942    0.2500    0.0000 C.3     1  UNL1       -0.0441
      8 C           3.7320    0.7500    0.0000 C.3     1  UNL1       -0.0507
      9 C           6.3301   -0.7500    0.0000 C.3     1  UNL1       -0.0624
     10 C           2.8660    0.2500    0.0000 C.3     1  UNL1       -0.0467
     11 C          10.6603    0.7500    0.0000 C.3     1  UNL1       -0.0533
     12 C           9.7942   -0.7500    0.0000 C.3     1  UNL1       -0.0624
     13 C           2.0000    0.7500    0.0000 C.3     1  UNL1       -0.0627
     14 C           2.8660   -0.7500    0.0000 C.3     1  UNL1       -0.0627
     15 C          11.5263    0.2500    0.0000 C.3     1  UNL1       -0.0650
     16 H           6.8671   -0.0600    0.0000 H       1  UNL1        0.0298
     17 H           7.5947    1.2250    0.0000 H       1  UNL1        0.0268
     18 H           6.7976    1.2250    0.0000 H       1  UNL1        0.0268
     19 H           5.8626    1.2250    0.0000 H       1  UNL1        0.0268
     20 H           5.0656    1.2250    0.0000 H       1  UNL1        0.0268
     21 H           7.6636   -0.2249    0.0000 H       1  UNL1        0.0265
     22 H           8.4607   -0.2249    0.0000 H       1  UNL1        0.0265
     23 H           9.3267    1.2250    0.0000 H       1  UNL1        0.0268
     24 H           8.5297    1.2250    0.0000 H       1  UNL1        0.0268
     25 H           4.1996   -0.2249    0.0000 H       1  UNL1        0.0265
     26 H           4.9966   -0.2249    0.0000 H       1  UNL1        0.0265
     27 H           9.2573   -0.0600    0.0000 H       1  UNL1        0.0298
     28 H           4.1306    1.2250    0.0000 H       1  UNL1        0.0268
     29 H           3.3335    1.2250    0.0000 H       1  UNL1        0.0268
     30 H           5.7101   -0.7500    0.0000 H       1  UNL1        0.0232
     31 H           6.3301   -1.3700    0.0000 H       1  UNL1        0.0232
     32 H           6.9501   -0.7500    0.0000 H       1  UNL1        0.0232
     33 H           2.8660    0.8700    0.0000 H       1  UNL1        0.0295
     34 H          11.0588    1.2250    0.0000 H       1  UNL1        0.0265
     35 H          10.2617    1.2250    0.0000 H       1  UNL1        0.0265
     36 H           9.1742   -0.7500    0.0000 H       1  UNL1        0.0232
     37 H           9.7942   -1.3700    0.0000 H       1  UNL1        0.0232
     38 H          10.4142   -0.7500    0.0000 H       1  UNL1        0.0232
     39 H           2.3100    1.2869    0.0000 H       1  UNL1        0.0232
     40 H           1.4631    1.0600    0.0000 H       1  UNL1        0.0232
     41 H           1.6900    0.2131    0.0000 H       1  UNL1        0.0232
     42 H           2.2460   -0.7500    0.0000 H       1  UNL1        0.0232
     43 H           2.8660   -1.3700    0.0000 H       1  UNL1        0.0232
     44 H           3.4860   -0.7500    0.0000 H       1  UNL1        0.0232
     45 H          11.2163   -0.2869    0.0000 H       1  UNL1        0.0230
     46 H          12.0632   -0.0600    0.0000 H       1  UNL1        0.0230
     47 H          11.8363    0.7869    0.0000 H       1  UNL1        0.0230
@<TRIPOS>BOND
     1     1     2    1
     2     1     3    1
     3     1     9    1
     4     1    16    1
     5     2     4    1
     6     2    17    1
     7     2    18    1
     8     3     6    1
     9     3    19    1
    10     3    20    1
    11     4     5    1
    12     4    21    1
    13     4    22    1
    14     5     7    1
    15     5    23    1
    16     5    24    1
    17     6     8    1
    18     6    25    1
    19     6    26    1
    20     7    11    1
    21     7    12    1
    22     7    27    1
    23     8    10    1
    24     8    28    1
    25     8    29    1
    26     9    30    1
    27     9    31    1
    28     9    32    1
    29    10    13    1
    30    10    14    1
    31    10    33    1
    32    11    15    1
    33    11    34    1
    34    11    35    1
    35    12    36    1
    36    12    37    1
    37    12    38    1
    38    13    39    1
    39    13    40    1
    40    13    41    1
    41    14    42    1
    42    14    43    1
    43    14    44    1
    44    15    45    1
    45    15    46    1
    46    15    47    1
