@<TRIPOS>MOLECULE
IMPHY003396
 64 67 0 0 0
SMALL
GASTEIGER

@<TRIPOS>ATOM
      1 O           6.3496   -3.6428    0.0000 O.3     1  UNL1       -0.4779
      2 O           6.3739    0.5115    0.0000 O.2     1  UNL1       -0.4539
      3 O           4.5879   -2.5336    0.0000 O.3     1  UNL1       -0.5030
      4 O           8.9720   -0.9885    0.0000 O.2     1  UNL1       -0.2863
      5 O           9.8761    0.5083    0.0000 O.3     1  UNL1       -0.5055
      6 O           8.1180    3.5807    0.0000 O.3     1  UNL1       -0.5062
      7 C           7.2892   -4.1853    0.0000 C.3     1  UNL1        0.1237
      8 C           7.2560   -2.0300    0.0000 C.ar    1  UNL1        0.0346
      9 C           7.2399   -0.9885    0.0000 C.ar    1  UNL1        0.0758
     10 C           6.3579   -2.5578    0.0000 C.ar    1  UNL1        0.1712
     11 C           6.3739   -0.4885    0.0000 C.ar    1  UNL1        0.1470
     12 C           5.4639   -0.9954    0.0000 C.ar    1  UNL1        0.0443
     13 C           5.4558   -2.0370    0.0000 C.ar    1  UNL1        0.1662
     14 C           8.2246   -3.6355    0.0000 C.2     1  UNL1       -0.0409
     15 C           8.2079   -2.5507    0.0000 C.2     1  UNL1       -0.0504
     16 C           8.1059   -0.4885    0.0000 C.ar    1  UNL1        0.2044
     17 C           8.1059    0.5115    0.0000 C.ar    1  UNL1        0.1064
     18 C           7.7925   -5.0493    0.0000 C.3     1  UNL1       -0.0215
     19 C           6.7925   -5.0532    0.0000 C.3     1  UNL1       -0.0215
     20 C           7.2399    1.0115    0.0000 C.ar    1  UNL1        0.1463
     21 C           4.6037   -0.4854    0.0000 C.3     1  UNL1       -0.0021
     22 C           9.0159    1.0183    0.0000 C.ar    1  UNL1        0.1381
     23 C           9.0239    2.0599    0.0000 C.ar    1  UNL1        0.0400
     24 C           7.2238    2.0530    0.0000 C.ar    1  UNL1        0.0234
     25 C           8.1219    2.5807    0.0000 C.ar    1  UNL1        0.1273
     26 C           3.7319   -0.9754    0.0000 C.2     1  UNL1       -0.0807
     27 C           9.8919    2.5566    0.0000 C.3     1  UNL1       -0.0023
     28 C           2.8718   -0.4654    0.0000 C.2     1  UNL1       -0.0793
     29 C           9.8958    3.5566    0.0000 C.2     1  UNL1       -0.0807
     30 C           2.0000   -0.9553    0.0000 C.3     1  UNL1       -0.0440
     31 C           2.8833    0.5346    0.0000 C.3     1  UNL1       -0.0440
     32 C          10.7637    4.0532    0.0000 C.2     1  UNL1       -0.0793
     33 C          10.7676    5.0532    0.0000 C.3     1  UNL1       -0.0440
     34 C          11.6278    3.5499    0.0000 C.3     1  UNL1       -0.0440
     35 H           8.7651   -3.9393    0.0000 H       1  UNL1        0.0611
     36 H           8.7387   -2.2304    0.0000 H       1  UNL1        0.0623
     37 H           6.2544   -4.7453    0.0000 H       1  UNL1        0.0271
     38 H           6.4846   -5.5913    0.0000 H       1  UNL1        0.0271
     39 H           7.3307   -5.3611    0.0000 H       1  UNL1        0.0271
     40 H           7.2568   -5.3614    0.0000 H       1  UNL1        0.0271
     41 H           8.1046   -5.5851    0.0000 H       1  UNL1        0.0271
     42 H           8.3283   -4.7373    0.0000 H       1  UNL1        0.0271
     43 H           5.0077   -0.0151    0.0000 H       1  UNL1        0.0358
     44 H           4.2107   -0.0059    0.0000 H       1  UNL1        0.0358
     45 H           6.6834    2.3567    0.0000 H       1  UNL1        0.0691
     46 H           3.7248   -1.5953    0.0000 H       1  UNL1        0.0575
     47 H          10.1017    1.9731    0.0000 H       1  UNL1        0.0358
     48 H          10.5029    2.6619    0.0000 H       1  UNL1        0.0358
     49 H           4.5855   -3.1536    0.0000 H       1  UNL1        0.2923
     50 H           9.3600    3.8686    0.0000 H       1  UNL1        0.0575
     51 H          10.4166    0.8121    0.0000 H       1  UNL1        0.2922
     52 H           7.5799    3.8886    0.0000 H       1  UNL1        0.2921
     53 H           1.6962   -0.4148    0.0000 H       1  UNL1        0.0274
     54 H           1.4595   -1.2591    0.0000 H       1  UNL1        0.0274
     55 H           2.3038   -1.4958    0.0000 H       1  UNL1        0.0274
     56 H           3.5033    0.5274    0.0000 H       1  UNL1        0.0274
     57 H           2.8905    1.1545    0.0000 H       1  UNL1        0.0274
     58 H           2.2634    0.5417    0.0000 H       1  UNL1        0.0274
     59 H          11.3875    5.0508    0.0000 H       1  UNL1        0.0274
     60 H          11.3157    3.0141    0.0000 H       1  UNL1        0.0274
     61 H          12.1635    3.2378    0.0000 H       1  UNL1        0.0274
     62 H          11.9399    4.0856    0.0000 H       1  UNL1        0.0274
     63 H          10.7699    5.6732    0.0000 H       1  UNL1        0.0274
     64 H          10.1476    5.0556    0.0000 H       1  UNL1        0.0274
@<TRIPOS>BOND
     1     1     7    1
     2     1    10    1
     3     2    11   ar
     4     2    20   ar
     5     3    13    1
     6     3    49    1
     7     4    16    2
     8     5    22    1
     9     5    51    1
    10     6    25    1
    11     6    52    1
    12     7    14    1
    13     7    18    1
    14     7    19    1
    15     8     9   ar
    16     8    10   ar
    17     8    15    1
    18     9    11   ar
    19     9    16   ar
    20    10    13   ar
    21    11    12   ar
    22    12    13   ar
    23    12    21    1
    24    14    15    2
    25    14    35    1
    26    15    36    1
    27    16    17   ar
    28    17    20   ar
    29    17    22   ar
    30    18    40    1
    31    18    41    1
    32    18    42    1
    33    19    37    1
    34    19    38    1
    35    19    39    1
    36    20    24   ar
    37    21    26    1
    38    21    43    1
    39    21    44    1
    40    22    23   ar
    41    23    25   ar
    42    23    27    1
    43    24    25   ar
    44    24    45    1
    45    26    28    2
    46    26    46    1
    47    27    29    1
    48    27    47    1
    49    27    48    1
    50    28    30    1
    51    28    31    1
    52    29    32    2
    53    29    50    1
    54    30    53    1
    55    30    54    1
    56    30    55    1
    57    31    56    1
    58    31    57    1
    59    31    58    1
    60    32    33    1
    61    32    34    1
    62    33    59    1
    63    33    63    1
    64    33    64    1
    65    34    60    1
    66    34    61    1
    67    34    62    1
