@<TRIPOS>MOLECULE
IMPHY001121
 95 100 0 0 0
SMALL
GASTEIGER

@<TRIPOS>ATOM
      1 O           3.7320   -1.1383    0.0000 O.3     1  UNL1       -0.4586
      2 O           8.1003   -0.6351    0.0000 O.3     1  UNL1       -0.4576
      3 O           3.7320    0.8617    0.0000 O.3     1  UNL1       -0.3873
      4 O           6.3422   -3.7075    0.0000 O.3     1  UNL1       -0.4609
      5 O           5.4148    4.0584    0.0000 O.3     1  UNL1       -0.4525
      6 O           3.6076    3.9987    0.0000 O.2     1  UNL1       -0.2456
      7 O           2.8660    0.3617    0.0000 O.2     1  UNL1       -0.2512
      8 O           8.3097    5.2109    0.0000 O.2     1  UNL1       -0.4706
      9 O           8.9836   -2.1250    0.0000 O.2     1  UNL1       -0.2456
     10 O           8.0743   -3.7142    0.0000 O.2     1  UNL1       -0.2512
     11 C           6.3301   -0.6383    0.0000 C.3     1  UNL1        0.0156
     12 C           6.3301    0.3617    0.0000 C.3     1  UNL1       -0.0202
     13 C           5.4641   -1.1383    0.0000 C.3     1  UNL1        0.0162
     14 C           5.4641    0.8617    0.0000 C.3     1  UNL1        0.0229
     15 C           5.4480   -2.1798    0.0000 C.3     1  UNL1        0.0092
     16 C           4.5981   -0.6383    0.0000 C.3     1  UNL1        0.1336
     17 C           4.5981    0.3617    0.0000 C.3     1  UNL1        0.1016
     18 C           7.2401   -1.1451    0.0000 C.3     1  UNL1        0.1128
     19 C           7.2401    0.8686    0.0000 C.3     1  UNL1       -0.0478
     20 C           5.4480    1.9032    0.0000 C.2     1  UNL1       -0.0443
     21 C           6.3461    2.4310    0.0000 C.3     1  UNL1        0.0313
     22 C           6.3461   -2.7075    0.0000 C.3     1  UNL1        0.1119
     23 C           7.2482   -2.1867    0.0000 C.3     1  UNL1        0.0226
     24 C           7.2482    1.9102    0.0000 C.3     1  UNL1       -0.0399
     25 C           7.1962   -0.1383    0.0000 C.3     1  UNL1       -0.0555
     26 C           4.5981    1.3617    0.0000 C.3     1  UNL1       -0.0530
     27 C           4.9381   -3.0400    0.0000 C.3     1  UNL1       -0.0560
     28 C           4.4481   -2.1682    0.0000 C.3     1  UNL1       -0.0560
     29 C           6.3544    3.5160    0.0000 C.3     1  UNL1        0.1402
     30 C           7.2082    2.9376    0.0000 C.3     1  UNL1       -0.0521
     31 C           4.4961    2.4238    0.0000 C.2     1  UNL1        0.0230
     32 C           4.4794    3.5087    0.0000 C.2     1  UNL1        0.3325
     33 C           7.2224    4.0126    0.0000 C.ar    1  UNL1        0.0313
     34 C           2.8660   -0.6383    0.0000 C.2     1  UNL1        0.3043
     35 C           8.9721   -1.1251    0.0000 C.2     1  UNL1        0.3322
     36 C           7.2063   -4.2109    0.0000 C.2     1  UNL1        0.3042
     37 C           8.1344    3.6024    0.0000 C.ar    1  UNL1       -0.0172
     38 C           7.3308    5.0067    0.0000 C.ar    1  UNL1        0.0984
     39 C           2.0000   -1.1383    0.0000 C.3     1  UNL1        0.0332
     40 C           9.8322   -0.6151    0.0000 C.2     1  UNL1        0.0231
     41 C           7.2025   -5.2109    0.0000 C.3     1  UNL1        0.0332
     42 C           8.8064    4.3429    0.0000 C.ar    1  UNL1        0.0921
     43 C          10.7040   -1.1051    0.0000 C.2     1  UNL1       -0.0478
     44 C          11.5642   -0.5951    0.0000 C.ar    1  UNL1       -0.0248
     45 C          12.4359   -1.0850    0.0000 C.ar    1  UNL1       -0.0546
     46 C          11.5526    0.4048    0.0000 C.ar    1  UNL1       -0.0546
     47 C          13.2961   -0.5751    0.0000 C.ar    1  UNL1       -0.0612
     48 C          12.4128    0.9148    0.0000 C.ar    1  UNL1       -0.0612
     49 C          13.2846    0.4249    0.0000 C.ar    1  UNL1       -0.0617
     50 H           7.0630   -0.0689    0.0000 H       1  UNL1        0.0316
     51 H           4.9248   -1.4441    0.0000 H       1  UNL1        0.0350
     52 H           4.0611   -0.3283    0.0000 H       1  UNL1        0.0763
     53 H           5.1602    0.9817    0.0000 H       1  UNL1        0.0639
     54 H           7.7800   -1.4499    0.0000 H       1  UNL1        0.0741
     55 H           7.4447    0.2833    0.0000 H       1  UNL1        0.0269
     56 H           7.8518    0.9700    0.0000 H       1  UNL1        0.0269
     57 H           6.8824   -3.0186    0.0000 H       1  UNL1        0.0740
     58 H           7.4617   -2.7688    0.0000 H       1  UNL1        0.0337
     59 H           7.8582   -2.0759    0.0000 H       1  UNL1        0.0337
     60 H           7.8582    1.7994    0.0000 H       1  UNL1        0.0275
     61 H           7.4617    2.4922    0.0000 H       1  UNL1        0.0275
     62 H           7.5062   -0.6752    0.0000 H       1  UNL1        0.0236
     63 H           7.7331    0.1717    0.0000 H       1  UNL1        0.0236
     64 H           6.8862    0.3987    0.0000 H       1  UNL1        0.0236
     65 H           4.9081    1.8987    0.0000 H       1  UNL1        0.0239
     66 H           4.0611    1.6717    0.0000 H       1  UNL1        0.0239
     67 H           4.2881    0.8248    0.0000 H       1  UNL1        0.0239
     68 H           4.4048   -2.7238    0.0000 H       1  UNL1        0.0236
     69 H           4.6219   -3.5733    0.0000 H       1  UNL1        0.0236
     70 H           5.4714   -3.3562    0.0000 H       1  UNL1        0.0236
     71 H           4.4553   -1.5483    0.0000 H       1  UNL1        0.0236
     72 H           3.8282   -2.1610    0.0000 H       1  UNL1        0.0236
     73 H           4.4409   -2.7882    0.0000 H       1  UNL1        0.0236
     74 H           6.3556    4.1360    0.0000 H       1  UNL1        0.0795
     75 H           7.5224    2.4031    0.0000 H       1  UNL1        0.0239
     76 H           7.7428    3.2518    0.0000 H       1  UNL1        0.0239
     77 H           6.8941    3.4722    0.0000 H       1  UNL1        0.0239
     78 H           3.9652    2.1036    0.0000 H       1  UNL1        0.0689
     79 H           3.7320    1.4817    0.0000 H       1  UNL1        0.2100
     80 H           8.2609    2.9954    0.0000 H       1  UNL1        0.0653
     81 H           6.8716    5.4234    0.0000 H       1  UNL1        0.1033
     82 H           1.6900   -0.6013    0.0000 H       1  UNL1        0.0342
     83 H           1.4631   -1.4483    0.0000 H       1  UNL1        0.0342
     84 H           2.3100   -1.6752    0.0000 H       1  UNL1        0.0342
     85 H           9.8251    0.0048    0.0000 H       1  UNL1        0.0689
     86 H           6.5825   -5.2085    0.0000 H       1  UNL1        0.0342
     87 H           7.2001   -5.8308    0.0000 H       1  UNL1        0.0342
     88 H           7.8225   -5.2133    0.0000 H       1  UNL1        0.0342
     89 H           9.4227    4.2757    0.0000 H       1  UNL1        0.1029
     90 H          10.7112   -1.7250    0.0000 H       1  UNL1        0.0626
     91 H          12.4431   -1.7050    0.0000 H       1  UNL1        0.0623
     92 H          11.0121    0.7086    0.0000 H       1  UNL1        0.0623
     93 H          13.8366   -0.8788    0.0000 H       1  UNL1        0.0618
     94 H          12.4056    1.5348    0.0000 H       1  UNL1        0.0618
     95 H          13.8179    0.7411    0.0000 H       1  UNL1        0.0618
@<TRIPOS>BOND
     1    16     1    1
     2     1    34    1
     3    18     2    1
     4     2    35    1
     5    17     3    1
     6     3    79    1
     7    22     4    1
     8     4    36    1
     9     5    29    1
    10     5    32    1
    11     6    32    2
    12     7    34    2
    13     8    38   ar
    14     8    42   ar
    15     9    35    2
    16    10    36    2
    17    11    12    1
    18    11    13    1
    19    11    18    1
    20    11    25    1
    21    12    14    1
    22    12    19    1
    23    12    50    1
    24    13    15    1
    25    13    16    1
    26    13    51    1
    27    14    17    1
    28    14    20    1
    29    14    26    1
    30    15    22    1
    31    15    27    1
    32    15    28    1
    33    16    17    1
    34    16    52    1
    35    17    53    1
    36    18    23    1
    37    18    54    1
    38    19    24    1
    39    19    55    1
    40    19    56    1
    41    20    21    1
    42    20    31    2
    43    21    24    1
    44    21    29    1
    45    21    30    1
    46    22    23    1
    47    22    57    1
    48    23    58    1
    49    23    59    1
    50    24    60    1
    51    24    61    1
    52    25    62    1
    53    25    63    1
    54    25    64    1
    55    26    65    1
    56    26    66    1
    57    26    67    1
    58    27    68    1
    59    27    69    1
    60    27    70    1
    61    28    71    1
    62    28    72    1
    63    28    73    1
    64    29    33    1
    65    29    74    1
    66    30    75    1
    67    30    76    1
    68    30    77    1
    69    31    32    1
    70    31    78    1
    71    33    37   ar
    72    33    38   ar
    73    34    39    1
    74    35    40    1
    75    36    41    1
    76    37    42   ar
    77    37    80    1
    78    38    81    1
    79    39    82    1
    80    39    83    1
    81    39    84    1
    82    40    43    2
    83    40    85    1
    84    41    86    1
    85    41    87    1
    86    41    88    1
    87    42    89    1
    88    43    44    1
    89    43    90    1
    90    44    45   ar
    91    44    46   ar
    92    45    47   ar
    93    45    91    1
    94    46    48   ar
    95    46    92    1
    96    47    49   ar
    97    47    93    1
    98    48    49   ar
    99    48    94    1
   100    49    95    1
