@<TRIPOS>MOLECULE
IMPHY008799
 37 40 0 0 0
SMALL
GASTEIGER

@<TRIPOS>ATOM
      1 O           4.1282   -2.4109    0.0000 O.3     1  UNL1       -0.3678
      2 O           6.6814    0.2157    0.0000 O.3     1  UNL1       -0.4574
      3 O           2.0000    0.8081    0.0000 O.2     1  UNL1       -0.2968
      4 O           7.4178    1.8322    0.0000 O.2     1  UNL1       -0.2453
      5 C           4.6282   -1.5448    0.0000 C.3     1  UNL1        0.0999
      6 C           3.7272   -1.1110    0.0000 C.3     1  UNL1        0.0029
      7 C           3.5047   -0.1360    0.0000 C.3     1  UNL1        0.0324
      8 C           5.5291   -1.1110    0.0000 C.3     1  UNL1        0.0166
      9 C           5.1282   -2.4109    0.0000 C.3     1  UNL1        0.0779
     10 C           4.1282    0.6458    0.0000 C.3     1  UNL1       -0.0301
     11 C           2.8725   -1.6186    0.0000 C.3     1  UNL1       -0.0399
     12 C           5.1282    0.6458    0.0000 C.3     1  UNL1        0.0284
     13 C           5.7517   -0.1360    0.0000 C.3     1  UNL1        0.1131
     14 C           2.5144   -0.0495    0.0000 C.2     1  UNL1        0.1396
     15 C           2.1245   -0.9639    0.0000 C.3     1  UNL1        0.0068
     16 C           3.2822    0.8389    0.0000 C.3     1  UNL1       -0.0525
     17 C           5.6780    1.4740    0.0000 C.2     1  UNL1        0.0361
     18 C           6.6360    1.2087    0.0000 C.2     1  UNL1        0.3353
     19 C           5.3282    2.4109    0.0000 C.2     1  UNL1       -0.0883
     20 H           3.7642   -1.9601    0.0000 H       1  UNL1        0.0339
     21 H           5.6671   -1.7154    0.0000 H       1  UNL1        0.0330
     22 H           6.1492   -1.1110    0.0000 H       1  UNL1        0.0330
     23 H           5.2358   -3.0214    0.0000 H       1  UNL1        0.0589
     24 H           5.7108   -2.1988    0.0000 H       1  UNL1        0.0589
     25 H           4.2661    1.2503    0.0000 H       1  UNL1        0.0282
     26 H           3.5696    0.9148    0.0000 H       1  UNL1        0.0282
     27 H           2.4174   -2.0396    0.0000 H       1  UNL1        0.0273
     28 H           3.2434   -2.1154    0.0000 H       1  UNL1        0.0273
     29 H           4.7264    1.3948    0.0000 H       1  UNL1        0.0387
     30 H           6.3925   -0.6944    0.0000 H       1  UNL1        0.0741
     31 H           1.5829   -0.6621    0.0000 H       1  UNL1        0.0342
     32 H           1.7674   -1.4708    0.0000 H       1  UNL1        0.0342
     33 H           3.8866    0.9769    0.0000 H       1  UNL1        0.0239
     34 H           3.1442    1.4434    0.0000 H       1  UNL1        0.0239
     35 H           2.6777    0.7009    0.0000 H       1  UNL1        0.0239
     36 H           5.7228    2.8891    0.0000 H       1  UNL1        0.0540
     37 H           4.7168    2.5135    0.0000 H       1  UNL1        0.0540
@<TRIPOS>BOND
     1     5     1    1
     2     1     9    1
     3     2    13    1
     4     2    18    1
     5     3    14    2
     6     4    18    2
     7     5     6    1
     8     5     8    1
     9     5     9    1
    10     6     7    1
    11     6    11    1
    12     6    20    1
    13     7    10    1
    14     7    14    1
    15     7    16    1
    16     8    13    1
    17     8    21    1
    18     8    22    1
    19     9    23    1
    20     9    24    1
    21    10    12    1
    22    10    25    1
    23    10    26    1
    24    11    15    1
    25    11    27    1
    26    11    28    1
    27    12    13    1
    28    12    17    1
    29    12    29    1
    30    13    30    1
    31    14    15    1
    32    15    31    1
    33    15    32    1
    34    16    33    1
    35    16    34    1
    36    16    35    1
    37    17    18    1
    38    17    19    2
    39    19    36    1
    40    19    37    1
