@<TRIPOS>MOLECULE
IMPHY014371
 85 89 0 0 0
SMALL
GASTEIGER

@<TRIPOS>ATOM
      1 O           2.5357   -2.6574    0.0000 O.3     1  UNL1       -0.3887
      2 O           2.5519   -0.5658    0.0000 O.3     1  UNL1       -0.3892
      3 O          11.4608    0.4291    0.0000 O.3     1  UNL1       -0.4675
      4 O          10.6064   -1.0775    0.0000 O.2     1  UNL1       -0.2502
      5 C           7.0628   -1.1050    0.0000 C.3     1  UNL1       -0.0194
      6 C           6.1968   -0.6051    0.0000 C.3     1  UNL1       -0.0257
      7 C           5.2868   -1.1119    0.0000 C.3     1  UNL1       -0.0226
      8 C           7.9288   -0.6051    0.0000 C.3     1  UNL1       -0.0051
      9 C           5.2787   -2.1535    0.0000 C.3     1  UNL1       -0.0277
     10 C           7.0789   -2.1466    0.0000 C.3     1  UNL1       -0.0463
     11 C           7.9288    0.3949    0.0000 C.2     1  UNL1       -0.0626
     12 C           6.1808   -2.6743    0.0000 C.3     1  UNL1       -0.0486
     13 C           4.3433   -2.7032    0.0000 C.3     1  UNL1       -0.0032
     14 C           8.8228    0.9296    0.0000 C.3     1  UNL1       -0.0008
     15 C           6.1968    0.3949    0.0000 C.3     1  UNL1       -0.0306
     16 C           4.3599   -0.5478    0.0000 C.3     1  UNL1       -0.0184
     17 C           8.8228   -1.1397    0.0000 C.3     1  UNL1       -0.0424
     18 C           9.7288    0.4158    0.0000 C.3     1  UNL1        0.0745
     19 C           9.7288   -0.6259    0.0000 C.3     1  UNL1       -0.0359
     20 C           7.7056   -1.8711    0.0000 C.3     1  UNL1       -0.0585
     21 C           3.4037   -2.1607    0.0000 C.3     1  UNL1        0.0864
     22 C           7.0628    0.8949    0.0000 C.2     1  UNL1       -0.0836
     23 C           5.2945   -0.1119    0.0000 C.3     1  UNL1       -0.0589
     24 C           3.4120   -1.0758    0.0000 C.3     1  UNL1        0.0821
     25 C           8.2709   -1.5447    0.0000 C.3     1  UNL1       -0.0553
     26 C           8.7977    2.0143    0.0000 C.3     1  UNL1       -0.0337
     27 C          10.6726    0.9510    0.0000 C.3     1  UNL1       -0.0364
     28 C           9.7288    2.5712    0.0000 C.3     1  UNL1       -0.0407
     29 C           3.8467   -3.5712    0.0000 C.3     1  UNL1       -0.0571
     30 C           4.8466   -3.5673    0.0000 C.3     1  UNL1       -0.0571
     31 C          10.6726    2.0360    0.0000 C.3     1  UNL1       -0.0492
     32 C          10.5987   -0.0775    0.0000 C.2     1  UNL1        0.3136
     33 C           7.9222    2.4975    0.0000 C.3     1  UNL1       -0.0616
     34 C           9.7173    3.5712    0.0000 C.3     1  UNL1       -0.0622
     35 C          12.3307   -0.0642    0.0000 C.3     1  UNL1        0.0817
     36 H           6.9329   -0.1801    0.0000 H       1  UNL1        0.0315
     37 H           5.2820   -3.0035    0.0000 H       1  UNL1        0.0312
     38 H           7.2969   -2.7270    0.0000 H       1  UNL1        0.0271
     39 H           7.6880   -2.0311    0.0000 H       1  UNL1        0.0271
     40 H           5.7835   -3.1503    0.0000 H       1  UNL1        0.0268
     41 H           6.5818   -3.1472    0.0000 H       1  UNL1        0.0268
     42 H           8.0786    1.3404    0.0000 H       1  UNL1        0.0359
     43 H           5.9847    0.9776    0.0000 H       1  UNL1        0.0310
     44 H           5.5862    0.2873    0.0000 H       1  UNL1        0.0310
     45 H           4.7681   -0.0812    0.0000 H       1  UNL1        0.0296
     46 H           3.9700   -0.0658    0.0000 H       1  UNL1        0.0296
     47 H           8.4182   -1.6095    0.0000 H       1  UNL1        0.0274
     48 H           9.2164   -1.6187    0.0000 H       1  UNL1        0.0274
     49 H           9.9379   -1.2096    0.0000 H       1  UNL1        0.0276
     50 H          10.3397   -0.5198    0.0000 H       1  UNL1        0.0276
     51 H           7.2306   -2.2696    0.0000 H       1  UNL1        0.0235
     52 H           8.1041   -2.3460    0.0000 H       1  UNL1        0.0235
     53 H           8.1805   -1.4726    0.0000 H       1  UNL1        0.0235
     54 H           3.4025   -2.7807    0.0000 H       1  UNL1        0.0624
     55 H           7.0628    1.5150    0.0000 H       1  UNL1        0.0572
     56 H           5.9145   -0.1167    0.0000 H       1  UNL1        0.0235
     57 H           5.2993    0.5081    0.0000 H       1  UNL1        0.0235
     58 H           4.6745   -0.1071    0.0000 H       1  UNL1        0.0235
     59 H           2.8722   -1.3806    0.0000 H       1  UNL1        0.0619
     60 H           7.6884   -1.7568    0.0000 H       1  UNL1        0.0238
     61 H           8.4830   -2.1273    0.0000 H       1  UNL1        0.0238
     62 H           8.8535   -1.3326    0.0000 H       1  UNL1        0.0238
     63 H           8.2674    1.6930    0.0000 H       1  UNL1        0.0307
     64 H          10.8817    0.3673    0.0000 H       1  UNL1        0.0276
     65 H          11.2835    1.0571    0.0000 H       1  UNL1        0.0276
     66 H          10.2628    2.8864    0.0000 H       1  UNL1        0.0301
     67 H           3.3085   -3.2632    0.0000 H       1  UNL1        0.0236
     68 H           3.5387   -4.1093    0.0000 H       1  UNL1        0.0236
     69 H           4.3848   -3.8791    0.0000 H       1  UNL1        0.0236
     70 H           4.3109   -3.8794    0.0000 H       1  UNL1        0.0236
     71 H           5.1587   -4.1030    0.0000 H       1  UNL1        0.0236
     72 H           5.3824   -3.2553    0.0000 H       1  UNL1        0.0236
     73 H          11.2835    1.9299    0.0000 H       1  UNL1        0.0268
     74 H          10.8817    2.6197    0.0000 H       1  UNL1        0.0268
     75 H           8.2218    3.0403    0.0000 H       1  UNL1        0.0233
     76 H           7.3794    2.7971    0.0000 H       1  UNL1        0.0233
     77 H           7.6226    1.9547    0.0000 H       1  UNL1        0.0233
     78 H           2.0000   -2.3453    0.0000 H       1  UNL1        0.2099
     79 H           2.5590    0.0542    0.0000 H       1  UNL1        0.2099
     80 H          10.3372    3.5783    0.0000 H       1  UNL1        0.0233
     81 H           9.7101    4.1911    0.0000 H       1  UNL1        0.0233
     82 H           9.0973    3.5640    0.0000 H       1  UNL1        0.0233
     83 H          12.0248   -0.6035    0.0000 H       1  UNL1        0.0661
     84 H          12.8700   -0.3700    0.0000 H       1  UNL1        0.0661
     85 H          12.6365    0.4751    0.0000 H       1  UNL1        0.0661
@<TRIPOS>BOND
     1    21     1    1
     2     1    78    1
     3    24     2    1
     4     2    79    1
     5     3    32    1
     6     3    35    1
     7     4    32    2
     8     5     6    1
     9     5     8    1
    10     5    10    1
    11     5    20    1
    12     6     7    1
    13     6    15    1
    14     6    36    1
    15     7     9    1
    16     7    16    1
    17     7    23    1
    18     8    11    1
    19     8    17    1
    20     8    25    1
    21     9    12    1
    22     9    13    1
    23     9    37    1
    24    10    12    1
    25    10    38    1
    26    10    39    1
    27    11    14    1
    28    11    22    2
    29    12    40    1
    30    12    41    1
    31    13    21    1
    32    13    29    1
    33    13    30    1
    34    14    18    1
    35    14    26    1
    36    14    42    1
    37    15    22    1
    38    15    43    1
    39    15    44    1
    40    16    24    1
    41    16    45    1
    42    16    46    1
    43    17    19    1
    44    17    47    1
    45    17    48    1
    46    18    19    1
    47    18    27    1
    48    18    32    1
    49    19    49    1
    50    19    50    1
    51    20    51    1
    52    20    52    1
    53    20    53    1
    54    21    24    1
    55    21    54    1
    56    22    55    1
    57    23    56    1
    58    23    57    1
    59    23    58    1
    60    24    59    1
    61    25    60    1
    62    25    61    1
    63    25    62    1
    64    26    28    1
    65    26    33    1
    66    26    63    1
    67    27    31    1
    68    27    64    1
    69    27    65    1
    70    28    31    1
    71    28    34    1
    72    28    66    1
    73    29    67    1
    74    29    68    1
    75    29    69    1
    76    30    70    1
    77    30    71    1
    78    30    72    1
    79    31    73    1
    80    31    74    1
    81    33    75    1
    82    33    76    1
    83    33    77    1
    84    34    80    1
    85    34    81    1
    86    34    82    1
    87    35    83    1
    88    35    84    1
    89    35    85    1
