@<TRIPOS>MOLECULE
IMPHY011269
 40 42 0 0 0
SMALL
GASTEIGER

@<TRIPOS>ATOM
      1 O           5.1350   -0.6296    0.0000 O.3     1  UNL1       -0.3404
      2 O           6.8671   -0.6296    0.0000 O.3     1  UNL1       -0.3024
      3 O           5.1350   -3.6296    0.0000 O.3     1  UNL1       -0.3864
      4 O           3.4030   -2.6296    0.0000 O.3     1  UNL1       -0.3865
      5 O           6.8671   -2.6296    0.0000 O.3     1  UNL1       -0.3841
      6 O           2.5369   -1.1296    0.0000 O.3     1  UNL1       -0.3924
      7 O           7.7331    0.8704    0.0000 O.3     1  UNL1       -0.4527
      8 O           5.1350    0.3704    0.0000 O.2     1  UNL1       -0.2686
      9 N           6.0010    1.8704    0.0000 N.am    1  UNL1       -0.2774
     10 C           5.1350   -2.6296    0.0000 C.3     1  UNL1        0.1141
     11 C           4.2690   -2.1296    0.0000 C.3     1  UNL1        0.1119
     12 C           6.0010   -2.1296    0.0000 C.3     1  UNL1        0.1343
     13 C           4.2690   -1.1296    0.0000 C.3     1  UNL1        0.1130
     14 C           6.0010   -1.1296    0.0000 C.3     1  UNL1        0.1923
     15 C           3.4030   -0.6296    0.0000 C.3     1  UNL1        0.0730
     16 C           6.8671    0.3704    0.0000 C.3     1  UNL1        0.2817
     17 C           6.0010    0.8704    0.0000 C.2     1  UNL1        0.2864
     18 C           7.7331    1.8704    0.0000 C.ar    1  UNL1        0.1456
     19 C           6.8671    2.3704    0.0000 C.ar    1  UNL1        0.0759
     20 C           8.6431    2.3772    0.0000 C.ar    1  UNL1       -0.0180
     21 C           6.8510    3.4119    0.0000 C.ar    1  UNL1       -0.0369
     22 C           8.6511    3.4188    0.0000 C.ar    1  UNL1       -0.0582
     23 C           7.7490    3.9396    0.0000 C.ar    1  UNL1       -0.0598
     24 H           5.6720   -2.9396    0.0000 H       1  UNL1        0.0648
     25 H           4.2690   -2.7496    0.0000 H       1  UNL1        0.0647
     26 H           6.5380   -1.8196    0.0000 H       1  UNL1        0.0671
     27 H           4.2690   -0.5096    0.0000 H       1  UNL1        0.0647
     28 H           6.0010   -0.5096    0.0000 H       1  UNL1        0.0939
     29 H           3.8015   -0.1547    0.0000 H       1  UNL1        0.0584
     30 H           3.0044   -0.1547    0.0000 H       1  UNL1        0.0584
     31 H           6.3301    0.0604    0.0000 H       1  UNL1        0.1162
     32 H           4.5981   -3.9396    0.0000 H       1  UNL1        0.2100
     33 H           3.4030   -3.2496    0.0000 H       1  UNL1        0.2100
     34 H           6.8671   -3.2496    0.0000 H       1  UNL1        0.2101
     35 H           2.0000   -0.8196    0.0000 H       1  UNL1        0.2095
     36 H           5.4641    2.1804    0.0000 H       1  UNL1        0.1551
     37 H           9.1764    2.0610    0.0000 H       1  UNL1        0.0655
     38 H           6.3105    3.7156    0.0000 H       1  UNL1        0.0637
     39 H           9.1892    3.7267    0.0000 H       1  UNL1        0.0619
     40 H           7.7466    4.5596    0.0000 H       1  UNL1        0.0618
@<TRIPOS>BOND
     1     1    13    1
     2     1    14    1
     3    14     2    1
     4     2    16    1
     5    10     3    1
     6     3    32    1
     7    11     4    1
     8     4    33    1
     9    12     5    1
    10     5    34    1
    11     6    15    1
    12     6    35    1
    13     7    16    1
    14     7    18    1
    15     8    17    2
    16     9    17   am
    17     9    19    1
    18     9    36    1
    19    10    11    1
    20    10    12    1
    21    10    24    1
    22    11    13    1
    23    11    25    1
    24    12    14    1
    25    12    26    1
    26    13    15    1
    27    13    27    1
    28    14    28    1
    29    15    29    1
    30    15    30    1
    31    16    17    1
    32    16    31    1
    33    18    19   ar
    34    18    20   ar
    35    19    21   ar
    36    20    22   ar
    37    20    37    1
    38    21    23   ar
    39    21    38    1
    40    22    23   ar
    41    22    39    1
    42    23    40    1
