@<TRIPOS>MOLECULE
IMPHY005633
 69 74 0 0 0
SMALL
GASTEIGER

@<TRIPOS>ATOM
      1 O           5.4275   -2.4385    0.0000 O.3     1  UNL1       -0.3512
      2 O           3.3389    1.2322    0.0000 O.3     1  UNL1       -0.3693
      3 O           8.1221   -2.9801    0.0000 O.3     1  UNL1       -0.4539
      4 O           4.5896   -2.9663    0.0000 O.2     1  UNL1       -0.2967
      5 O           7.2161   -4.5009    0.0000 O.2     1  UNL1       -0.2478
      6 O          10.0429   -0.2137    0.0000 O.2     1  UNL1       -0.4706
      7 O           5.4117    3.5480    0.0000 O.3     1  UNL1       -0.4679
      8 O           3.7613    3.0227    0.0000 O.2     1  UNL1       -0.2508
      9 C           6.3380   -1.9317    0.0000 C.3     1  UNL1        0.1283
     10 C           5.4720   -1.4317    0.0000 C.3     1  UNL1        0.0621
     11 C           5.4720   -0.4317    0.0000 C.3     1  UNL1       -0.0180
     12 C           7.2040   -1.4317    0.0000 C.3     1  UNL1        0.0422
     13 C           4.5780    0.1030    0.0000 C.3     1  UNL1        0.0043
     14 C           6.3220   -2.9732    0.0000 C.3     1  UNL1        0.1861
     15 C           3.6720   -0.4109    0.0000 C.3     1  UNL1        0.0023
     16 C           6.3380    0.0683    0.0000 C.3     1  UNL1       -0.0479
     17 C           7.2040   -0.4317    0.0000 C.3     1  UNL1       -0.0408
     18 C           4.5780   -1.9664    0.0000 C.2     1  UNL1        0.1427
     19 C           4.3680    1.1169    0.0000 C.3     1  UNL1        0.0754
     20 C           3.6720   -1.4525    0.0000 C.3     1  UNL1        0.0125
     21 C           8.1140   -1.9385    0.0000 C.3     1  UNL1        0.1391
     22 C           2.9097    0.2899    0.0000 C.3     1  UNL1        0.0681
     23 C           6.1221   -2.5574    0.0000 C.3     1  UNL1       -0.0498
     24 C           8.0701   -0.9317    0.0000 C.3     1  UNL1       -0.0531
     25 C           5.4479    0.5963    0.0000 C.3     1  UNL1       -0.0565
     26 C           7.2200   -3.5009    0.0000 C.2     1  UNL1        0.3398
     27 C           5.0415    1.8560    0.0000 C.3     1  UNL1        0.0717
     28 C           8.9742   -1.4286    0.0000 C.ar    1  UNL1        0.0310
     29 C           2.0000    0.7052    0.0000 C.3     1  UNL1       -0.0358
     30 C           2.2336   -0.4469    0.0000 C.3     1  UNL1       -0.0358
     31 C           4.7382    2.8089    0.0000 C.2     1  UNL1        0.3093
     32 C           9.8924   -1.8247    0.0000 C.ar    1  UNL1       -0.0172
     33 C           9.0672   -0.4329    0.0000 C.ar    1  UNL1        0.0984
     34 C          10.5529   -1.0739    0.0000 C.ar    1  UNL1        0.0921
     35 C           5.1084    4.5009    0.0000 C.3     1  UNL1        0.0817
     36 H           6.2081   -0.8567    0.0000 H       1  UNL1        0.0317
     37 H           5.8886   -3.7044    0.0000 H       1  UNL1        0.0743
     38 H           2.8937   -0.7526    0.0000 H       1  UNL1        0.0339
     39 H           6.7366    0.5433    0.0000 H       1  UNL1        0.0269
     40 H           5.9395    0.5433    0.0000 H       1  UNL1        0.0269
     41 H           7.8146   -0.5393    0.0000 H       1  UNL1        0.0273
     42 H           7.4161    0.1509    0.0000 H       1  UNL1        0.0273
     43 H           4.1495    1.6971    0.0000 H       1  UNL1        0.0607
     44 H           3.0611   -1.3464    0.0000 H       1  UNL1        0.0346
     45 H           3.4629   -2.0362    0.0000 H       1  UNL1        0.0346
     46 H           8.6539   -2.2433    0.0000 H       1  UNL1        0.0793
     47 H           5.5852   -2.8675    0.0000 H       1  UNL1        0.0240
     48 H           6.4322   -3.0944    0.0000 H       1  UNL1        0.0240
     49 H           6.6590   -2.2474    0.0000 H       1  UNL1        0.0240
     50 H           8.3801   -1.4686    0.0000 H       1  UNL1        0.0237
     51 H           8.6070   -0.6217    0.0000 H       1  UNL1        0.0237
     52 H           7.7601   -0.3947    0.0000 H       1  UNL1        0.0237
     53 H           5.7538    0.0570    0.0000 H       1  UNL1        0.0236
     54 H           5.9872    0.9021    0.0000 H       1  UNL1        0.0236
     55 H           5.1420    1.1356    0.0000 H       1  UNL1        0.0236
     56 H           5.4203    1.3652    0.0000 H       1  UNL1        0.0403
     57 H           5.5907    2.1438    0.0000 H       1  UNL1        0.0403
     58 H           1.7767   -0.0277    0.0000 H       1  UNL1        0.0257
     59 H           1.8144   -0.9037    0.0000 H       1  UNL1        0.0257
     60 H           2.6904   -0.8661    0.0000 H       1  UNL1        0.0257
     61 H           2.2575    1.2692    0.0000 H       1  UNL1        0.0257
     62 H           1.4360    0.9627    0.0000 H       1  UNL1        0.0257
     63 H           1.7425    0.1412    0.0000 H       1  UNL1        0.0257
     64 H          10.0283   -2.4296    0.0000 H       1  UNL1        0.0653
     65 H           8.6017   -0.0234    0.0000 H       1  UNL1        0.1033
     66 H          11.1702   -1.1315    0.0000 H       1  UNL1        0.1029
     67 H           5.6992    4.6890    0.0000 H       1  UNL1        0.0661
     68 H           4.9204    5.0917    0.0000 H       1  UNL1        0.0661
     69 H           4.5176    4.3129    0.0000 H       1  UNL1        0.0661
@<TRIPOS>BOND
     1     9     1    1
     2     1    14    1
     3     2    19    1
     4     2    22    1
     5     3    21    1
     6     3    26    1
     7     4    18    2
     8     5    26    2
     9     6    33   ar
    10     6    34   ar
    11     7    31    1
    12     7    35    1
    13     8    31    2
    14     9    10    1
    15     9    12    1
    16     9    14    1
    17    10    11    1
    18    10    18    1
    19    10    23    1
    20    11    13    1
    21    11    16    1
    22    11    36    1
    23    12    17    1
    24    12    21    1
    25    12    24    1
    26    13    15    1
    27    13    19    1
    28    13    25    1
    29    14    26    1
    30    14    37    1
    31    15    20    1
    32    15    22    1
    33    15    38    1
    34    16    17    1
    35    16    39    1
    36    16    40    1
    37    17    41    1
    38    17    42    1
    39    18    20    1
    40    19    27    1
    41    19    43    1
    42    20    44    1
    43    20    45    1
    44    21    28    1
    45    21    46    1
    46    22    29    1
    47    22    30    1
    48    23    47    1
    49    23    48    1
    50    23    49    1
    51    24    50    1
    52    24    51    1
    53    24    52    1
    54    25    53    1
    55    25    54    1
    56    25    55    1
    57    27    31    1
    58    27    56    1
    59    27    57    1
    60    28    32   ar
    61    28    33   ar
    62    29    61    1
    63    29    62    1
    64    29    63    1
    65    30    58    1
    66    30    59    1
    67    30    60    1
    68    32    34   ar
    69    32    64    1
    70    33    65    1
    71    34    66    1
    72    35    67    1
    73    35    68    1
    74    35    69    1
