@<TRIPOS>MOLECULE
IMPHY010005
 42 42 0 0 0
SMALL
GASTEIGER

@<TRIPOS>ATOM
      1 O           5.0550   -0.3386    0.0000 O.3     1  UNL1       -0.3877
      2 C           2.9881    0.9160    0.0000 C.3     1  UNL1       -0.0169
      3 C           2.7292   -0.0499    0.0000 C.3     1  UNL1       -0.0441
      4 C           3.2292   -0.9160    0.0000 C.3     1  UNL1       -0.0486
      5 C           5.5861    1.4160    0.0000 C.3     1  UNL1       -0.0231
      6 C           3.8541    1.4160    0.0000 C.2     1  UNL1       -0.0820
      7 C           4.2292   -0.9160    0.0000 C.3     1  UNL1       -0.0319
      8 C           6.4613    0.9501    0.0000 C.3     1  UNL1       -0.0172
      9 C           2.0000    0.7619    0.0000 C.3     1  UNL1       -0.0563
     10 C           2.3984    1.7236    0.0000 C.3     1  UNL1       -0.0563
     11 C           4.7201    0.9160    0.0000 C.2     1  UNL1       -0.0845
     12 C           5.9613    0.0840    0.0000 C.3     1  UNL1        0.0741
     13 C           5.0953   -1.4160    0.0000 C.2     1  UNL1       -0.0741
     14 C           5.9613   -0.9160    0.0000 C.2     1  UNL1       -0.0569
     15 C           5.5767    2.4160    0.0000 C.3     1  UNL1       -0.0589
     16 C           5.0953   -2.4160    0.0000 C.3     1  UNL1       -0.0437
     17 H           2.1923    0.2601    0.0000 H       1  UNL1        0.0273
     18 H           2.2908   -0.4883    0.0000 H       1  UNL1        0.0273
     19 H           2.6466   -1.1280    0.0000 H       1  UNL1        0.0269
     20 H           3.3369   -1.5265    0.0000 H       1  UNL1        0.0269
     21 H           5.0477    1.7235    0.0000 H       1  UNL1        0.0341
     22 H           3.8541    2.0360    0.0000 H       1  UNL1        0.0574
     23 H           4.7042   -0.5174    0.0000 H       1  UNL1        0.0310
     24 H           4.0688   -1.5148    0.0000 H       1  UNL1        0.0310
     25 H           7.0017    0.6462    0.0000 H       1  UNL1        0.0299
     26 H           6.7589    1.4940    0.0000 H       1  UNL1        0.0299
     27 H           1.9045    1.3745    0.0000 H       1  UNL1        0.0238
     28 H           1.3874    0.6664    0.0000 H       1  UNL1        0.0238
     29 H           2.8991    2.0892    0.0000 H       1  UNL1        0.0238
     30 H           2.0327    2.2243    0.0000 H       1  UNL1        0.0238
     31 H           1.8976    1.3580    0.0000 H       1  UNL1        0.0238
     32 H           2.0955    0.1493    0.0000 H       1  UNL1        0.0238
     33 H           4.1832    0.6059    0.0000 H       1  UNL1        0.0572
     34 H           5.5424    0.5412    0.0000 H       1  UNL1        0.0638
     35 H           6.4982   -1.2260    0.0000 H       1  UNL1        0.0597
     36 H           6.1966    2.4218    0.0000 H       1  UNL1        0.0235
     37 H           5.5708    3.0359    0.0000 H       1  UNL1        0.0235
     38 H           4.9567    2.4101    0.0000 H       1  UNL1        0.0235
     39 H           4.4753   -2.4160    0.0000 H       1  UNL1        0.0274
     40 H           5.0953   -3.0360    0.0000 H       1  UNL1        0.0274
     41 H           5.7153   -2.4160    0.0000 H       1  UNL1        0.0274
     42 H           4.4561   -0.1782    0.0000 H       1  UNL1        0.2102
@<TRIPOS>BOND
     1     1    12    1
     2     1    42    1
     3     2     3    1
     4     2     6    1
     5     2     9    1
     6     2    10    1
     7     3     4    1
     8     3    17    1
     9     3    18    1
    10     4     7    1
    11     4    19    1
    12     4    20    1
    13     5     8    1
    14     5    11    1
    15     5    15    1
    16     5    21    1
    17     6    11    2
    18     6    22    1
    19     7    13    1
    20     7    23    1
    21     7    24    1
    22     8    12    1
    23     8    25    1
    24     8    26    1
    25     9    27    1
    26     9    28    1
    27     9    32    1
    28    10    29    1
    29    10    30    1
    30    10    31    1
    31    11    33    1
    32    12    14    1
    33    12    34    1
    34    13    14    2
    35    13    16    1
    36    14    35    1
    37    15    36    1
    38    15    37    1
    39    15    38    1
    40    16    39    1
    41    16    40    1
    42    16    41    1
