@<TRIPOS>MOLECULE
IMPHY009843
 50 51 0 0 0
SMALL
GASTEIGER

@<TRIPOS>ATOM
      1 S           8.9282    0.5000    0.0000 S.O     1  UNL1        0.0253
      2 O           8.9282    1.5000    0.0000 O.2     1  UNL1       -0.2569
      3 O          14.2045    0.3047    0.0000 O.3     1  UNL1       -0.4526
      4 O          14.2045   -1.3047    0.0000 O.3     1  UNL1       -0.4526
      5 C           6.3301    0.0000    0.0000 C.3     1  UNL1       -0.0522
      6 C           9.7942    0.0000    0.0000 C.3     1  UNL1        0.0360
      7 C           7.1962    0.5000    0.0000 C.3     1  UNL1       -0.0417
      8 C           5.4641    0.5000    0.0000 C.3     1  UNL1       -0.0530
      9 C           8.0622    0.0000    0.0000 C.3     1  UNL1        0.0236
     10 C           4.5981    0.0000    0.0000 C.3     1  UNL1       -0.0531
     11 C          10.6603    0.5000    0.0000 C.3     1  UNL1       -0.0136
     12 C           3.7320    0.5000    0.0000 C.3     1  UNL1       -0.0533
     13 C          11.5263    0.0000    0.0000 C.ar    1  UNL1       -0.0426
     14 C           9.7942   -1.0000    0.0000 C.3     1  UNL1       -0.0507
     15 C           2.8660    0.0000    0.0000 C.3     1  UNL1       -0.0559
     16 C          12.3923    0.5000    0.0000 C.ar    1  UNL1       -0.0129
     17 C          11.5263   -1.0000    0.0000 C.ar    1  UNL1       -0.0548
     18 C          13.2583    0.0000    0.0000 C.ar    1  UNL1        0.1665
     19 C           2.0000    0.5000    0.0000 C.3     1  UNL1       -0.0653
     20 C          13.2583   -1.0000    0.0000 C.ar    1  UNL1        0.1662
     21 C          12.3923   -1.5000    0.0000 C.ar    1  UNL1       -0.0159
     22 C          14.7882   -0.5000    0.0000 C.3     1  UNL1        0.2332
     23 H           9.0581   -0.4250    0.0000 H       1  UNL1        0.0437
     24 H           5.9316   -0.4749    0.0000 H       1  UNL1        0.0266
     25 H           6.7287   -0.4749    0.0000 H       1  UNL1        0.0266
     26 H           7.5947    0.9749    0.0000 H       1  UNL1        0.0274
     27 H           6.7976    0.9749    0.0000 H       1  UNL1        0.0274
     28 H           5.8626    0.9749    0.0000 H       1  UNL1        0.0265
     29 H           5.0656    0.9749    0.0000 H       1  UNL1        0.0265
     30 H           7.6636   -0.4749    0.0000 H       1  UNL1        0.0401
     31 H           8.4607   -0.4749    0.0000 H       1  UNL1        0.0401
     32 H           4.1996   -0.4749    0.0000 H       1  UNL1        0.0265
     33 H           4.9966   -0.4749    0.0000 H       1  UNL1        0.0265
     34 H          11.0588    0.9749    0.0000 H       1  UNL1        0.0324
     35 H          10.2617    0.9749    0.0000 H       1  UNL1        0.0324
     36 H           4.1306    0.9749    0.0000 H       1  UNL1        0.0265
     37 H           3.3335    0.9749    0.0000 H       1  UNL1        0.0265
     38 H           9.1742   -1.0000    0.0000 H       1  UNL1        0.0241
     39 H           9.7942   -1.6200    0.0000 H       1  UNL1        0.0241
     40 H          10.4142   -1.0000    0.0000 H       1  UNL1        0.0241
     41 H           2.4675   -0.4749    0.0000 H       1  UNL1        0.0263
     42 H           3.2646   -0.4749    0.0000 H       1  UNL1        0.0263
     43 H          12.3923    1.1200    0.0000 H       1  UNL1        0.0658
     44 H          10.9893   -1.3100    0.0000 H       1  UNL1        0.0621
     45 H           2.3100    1.0369    0.0000 H       1  UNL1        0.0230
     46 H           1.4631    0.8100    0.0000 H       1  UNL1        0.0230
     47 H           1.6900   -0.0369    0.0000 H       1  UNL1        0.0230
     48 H          12.3923   -2.1200    0.0000 H       1  UNL1        0.0655
     49 H          15.2490   -0.9147    0.0000 H       1  UNL1        0.1166
     50 H          15.2490   -0.0853    0.0000 H       1  UNL1        0.1166
@<TRIPOS>BOND
     1     1     2    2
     2     1     6    1
     3     1     9    1
     4     3    18    1
     5     3    22    1
     6     4    20    1
     7     4    22    1
     8     5     7    1
     9     5     8    1
    10     5    24    1
    11     5    25    1
    12     6    11    1
    13     6    14    1
    14     6    23    1
    15     7     9    1
    16     7    26    1
    17     7    27    1
    18     8    10    1
    19     8    28    1
    20     8    29    1
    21     9    30    1
    22     9    31    1
    23    10    12    1
    24    10    32    1
    25    10    33    1
    26    11    13    1
    27    11    34    1
    28    11    35    1
    29    12    15    1
    30    12    36    1
    31    12    37    1
    32    13    16   ar
    33    13    17   ar
    34    14    38    1
    35    14    39    1
    36    14    40    1
    37    15    19    1
    38    15    41    1
    39    15    42    1
    40    16    18   ar
    41    16    43    1
    42    17    21   ar
    43    17    44    1
    44    18    20   ar
    45    19    45    1
    46    19    46    1
    47    19    47    1
    48    20    21   ar
    49    21    48    1
    50    22    49    1
    51    22    50    1
