@<TRIPOS>MOLECULE
IMPHY017671
 24 24 0 0 0
SMALL
GASTEIGER

@<TRIPOS>ATOM
      1 O           2.8660   -2.5000    0.0000 O.3     1  UNL1       -0.4951
      2 O           2.0000    2.0000    0.0000 O.2     1  UNL1       -0.2921
      3 C           2.8660    0.5000    0.0000 C.ar    1  UNL1        0.0176
      4 C           3.7320    2.0000    0.0000 C.3     1  UNL1        0.0076
      5 C           2.8660    1.5000    0.0000 C.2     1  UNL1        0.1629
      6 C           3.7320   -0.0000    0.0000 C.ar    1  UNL1       -0.0478
      7 C           2.0000    0.0000    0.0000 C.ar    1  UNL1       -0.0478
      8 C           2.8660   -1.5000    0.0000 C.ar    1  UNL1        0.1201
      9 C           3.7320   -1.0000    0.0000 C.ar    1  UNL1       -0.0193
     10 C           2.0000   -1.0000    0.0000 C.ar    1  UNL1       -0.0193
     11 C           3.7320    3.0000    0.0000 C.3     1  UNL1       -0.0582
     12 C           2.0000   -3.0000    0.0000 C.3     1  UNL1        0.0788
     13 H           3.9441    1.4174    0.0000 H       1  UNL1        0.0342
     14 H           4.3426    2.1077    0.0000 H       1  UNL1        0.0342
     15 H           4.2690    0.3100    0.0000 H       1  UNL1        0.0626
     16 H           1.4631    0.3100    0.0000 H       1  UNL1        0.0626
     17 H           4.2690   -1.3100    0.0000 H       1  UNL1        0.0654
     18 H           1.4631   -1.3100    0.0000 H       1  UNL1        0.0654
     19 H           4.3520    3.0000    0.0000 H       1  UNL1        0.0234
     20 H           3.7320    3.6200    0.0000 H       1  UNL1        0.0234
     21 H           3.1120    3.0000    0.0000 H       1  UNL1        0.0234
     22 H           1.6900   -2.4631    0.0000 H       1  UNL1        0.0660
     23 H           1.4631   -3.3100    0.0000 H       1  UNL1        0.0660
     24 H           2.3100   -3.5369    0.0000 H       1  UNL1        0.0660
@<TRIPOS>BOND
     1     1     8    1
     2     1    12    1
     3     2     5    2
     4     3     5    1
     5     3     6   ar
     6     3     7   ar
     7     4     5    1
     8     4    11    1
     9     4    13    1
    10     4    14    1
    11     6     9   ar
    12     6    15    1
    13     7    10   ar
    14     7    16    1
    15     8     9   ar
    16     8    10   ar
    17     9    17    1
    18    10    18    1
    19    11    19    1
    20    11    20    1
    21    11    21    1
    22    12    22    1
    23    12    23    1
    24    12    24    1
