@<TRIPOS>MOLECULE
IMPHY011434
 44 47 0 0 0
SMALL
GASTEIGER

@<TRIPOS>ATOM
      1 O           6.9942   -0.4560    0.0000 O.3     1  UNL1       -0.4592
      2 O           7.2353   -2.2880    0.0000 O.2     1  UNL1       -0.2505
      3 N           2.5623   -0.1223    0.0000 N.3     1  UNL1       -0.2981
      4 C           3.2863   -1.2196    0.0000 C.3     1  UNL1       -0.0055
      5 C           4.1154   -1.7788    0.0000 C.3     1  UNL1       -0.0205
      6 C           3.5620   -0.2583    0.0000 C.3     1  UNL1        0.0534
      7 C           2.5046   -1.8336    0.0000 C.3     1  UNL1       -0.0210
      8 C           5.3364   -0.9131    0.0000 C.3     1  UNL1        0.0662
      9 C           5.5952    0.0528    0.0000 C.3     1  UNL1        0.1228
     10 C           4.8586    1.0354    0.0000 C.3     1  UNL1        0.0132
     11 C           3.8389   -2.7336    0.0000 C.3     1  UNL1       -0.0486
     12 C           2.8454   -2.7675    0.0000 C.3     1  UNL1       -0.0482
     13 C           2.0000   -0.9600    0.0000 C.3     1  UNL1        0.0024
     14 C           3.0107   -2.1808    0.0000 C.3     1  UNL1       -0.0574
     15 C           6.7353   -1.4219    0.0000 C.2     1  UNL1        0.3112
     16 C           4.3586    1.9014    0.0000 C.3     1  UNL1       -0.0397
     17 C           2.1525    0.7899    0.0000 C.3     1  UNL1       -0.0123
     18 C           4.8586    2.7675    0.0000 C.3     1  UNL1       -0.0623
     19 C           3.3586    1.9014    0.0000 C.3     1  UNL1       -0.0623
     20 H           4.8201   -2.2541    0.0000 H       1  UNL1        0.0315
     21 H           3.7963    0.5587    0.0000 H       1  UNL1        0.0504
     22 H           1.7344   -2.1932    0.0000 H       1  UNL1        0.0319
     23 H           5.1164   -1.7342    0.0000 H       1  UNL1        0.0420
     24 H           5.8152    0.8738    0.0000 H       1  UNL1        0.0753
     25 H           5.3760    1.3770    0.0000 H       1  UNL1        0.0347
     26 H           3.7948   -3.3521    0.0000 H       1  UNL1        0.0268
     27 H           4.4493   -2.8425    0.0000 H       1  UNL1        0.0268
     28 H           2.2438   -2.9176    0.0000 H       1  UNL1        0.0269
     29 H           2.9315   -3.3815    0.0000 H       1  UNL1        0.0269
     30 H           1.5434   -0.5405    0.0000 H       1  UNL1        0.0429
     31 H           1.5162   -1.3478    0.0000 H       1  UNL1        0.0429
     32 H           2.4147   -2.0100    0.0000 H       1  UNL1        0.0236
     33 H           2.8398   -2.7768    0.0000 H       1  UNL1        0.0236
     34 H           3.6067   -2.3518    0.0000 H       1  UNL1        0.0236
     35 H           4.9786    1.9014    0.0000 H       1  UNL1        0.0300
     36 H           2.7181    1.0440    0.0000 H       1  UNL1        0.0391
     37 H           1.8985    1.3555    0.0000 H       1  UNL1        0.0391
     38 H           1.5870    0.5359    0.0000 H       1  UNL1        0.0391
     39 H           5.3956    2.4575    0.0000 H       1  UNL1        0.0232
     40 H           5.1686    3.3044    0.0000 H       1  UNL1        0.0232
     41 H           4.3217    3.0775    0.0000 H       1  UNL1        0.0232
     42 H           3.3586    2.5215    0.0000 H       1  UNL1        0.0232
     43 H           2.7386    1.9014    0.0000 H       1  UNL1        0.0232
     44 H           3.3586    1.2814    0.0000 H       1  UNL1        0.0232
@<TRIPOS>BOND
     1     1     9    1
     2     1    15    1
     3     2    15    2
     4     3     6    1
     5     3    13    1
     6     3    17    1
     7     4     5    1
     8     4     6    1
     9     4     7    1
    10     4    14    1
    11     5     8    1
    12     5    11    1
    13     5    20    1
    14     6     9    1
    15     6    21    1
    16     7    12    1
    17     7    13    1
    18     7    22    1
    19     8    10    1
    20     8    15    1
    21     8    23    1
    22     9    10    1
    23     9    24    1
    24    10    16    1
    25    10    25    1
    26    11    12    1
    27    11    26    1
    28    11    27    1
    29    12    28    1
    30    12    29    1
    31    13    30    1
    32    13    31    1
    33    14    32    1
    34    14    33    1
    35    14    34    1
    36    16    18    1
    37    16    19    1
    38    16    35    1
    39    17    36    1
    40    17    37    1
    41    17    38    1
    42    18    39    1
    43    18    40    1
    44    18    41    1
    45    19    42    1
    46    19    43    1
    47    19    44    1
