@<TRIPOS>MOLECULE
IMPHY010693
 15 18 0 0 0
SMALL
GASTEIGER

@<TRIPOS>ATOM
      1 C           3.1377   -1.1031    0.0000 C.3     1  UNL1        0.0040
      2 C           3.1377   -2.2552    0.0000 C.3     1  UNL1        0.0180
      3 C           4.1366   -2.8313    0.0000 C.3     1  UNL1        0.0037
      4 C           5.1355   -2.2552    0.0000 C.3     1  UNL1        0.0006
      5 C           5.1355   -1.1031    0.0000 C.3     1  UNL1        0.0003
      6 C           4.1366   -0.5148    0.0000 C.3     1  UNL1        0.0003
      7 C           3.8853   -1.8875    0.0000 C.3     1  UNL1        0.0043
      8 C           6.1283   -2.8374    0.0000 C.3     1  UNL1        0.0000
      9 C           5.1539    0.0000    0.0000 C.3     1  UNL1        0.0003
     10 C           2.7884   -3.5483    0.0000 C.3     1  UNL1        0.0254
     11 C           1.9794   -2.2491    0.0000 C.2     1  UNL1       -0.0491
     12 C           1.3973   -3.2480    0.0000 C.2     1  UNL1       -0.0346
     13 C           1.1582   -1.4279    0.0000 C.3     1  UNL1        0.0180
     14 C           0.0000   -1.4218    0.0000 C.3     1  UNL1        0.0043
     15 C           1.7282   -0.4229    0.0000 C.3     1  UNL1        0.0043
@<TRIPOS>BOND
     1     1     7    1
     2     1     2    1
     3     1     6    1
     4     2     3    1
     5     2    11    1
     6     3     4    1
     7     3     5    1
     8     4     8    1
     9     4     5    1
    10     4     7    1
    11     5     6    1
    12     7     9    1
    13     7    10    1
    14    10    12    1
    15    11    12    2
    16    11    13    1
    17    13    14    1
    18    13    15    1
