@<TRIPOS>MOLECULE
IMPHY015555
 39 40 0 0 0
SMALL
GASTEIGER

@<TRIPOS>ATOM
      1 O           3.0723    0.7723    0.0000 O.3     1  UNL1       -0.4572
      2 O           4.5723    1.6383    0.0000 O.2     1  UNL1       -0.2453
      3 C           5.4490   -2.0334    0.0000 C.3     1  UNL1       -0.0185
      4 C           4.3089   -1.0763    0.0000 C.3     1  UNL1        0.0060
      5 C           4.0501   -2.0423    0.0000 C.3     1  UNL1        0.0228
      6 C           3.5723   -0.0937    0.0000 C.3     1  UNL1        0.1139
      7 C           2.2756   -1.3875    0.0000 C.3     1  UNL1       -0.0278
      8 C           2.8290   -2.9079    0.0000 C.2     1  UNL1       -0.0694
      9 C           5.9490   -2.8995    0.0000 C.3     1  UNL1       -0.0588
     10 C           6.3150   -1.5334    0.0000 C.3     1  UNL1       -0.0588
     11 C           2.0000   -2.3487    0.0000 C.2     1  UNL1       -0.0842
     12 C           2.8639   -3.9073    0.0000 C.3     1  UNL1       -0.0434
     13 C           3.5723    1.6383    0.0000 C.2     1  UNL1        0.3349
     14 C           3.0723    2.5044    0.0000 C.2     1  UNL1        0.0293
     15 C           2.0723    2.5044    0.0000 C.3     1  UNL1       -0.0333
     16 C           3.5723    3.3704    0.0000 C.2     1  UNL1       -0.0774
     17 C           4.5723    3.3704    0.0000 C.3     1  UNL1       -0.0461
     18 H           4.7592   -0.6502    0.0000 H       1  UNL1        0.0345
     19 H           4.2401   -2.6324    0.0000 H       1  UNL1        0.0387
     20 H           4.0897    0.2478    0.0000 H       1  UNL1        0.0743
     21 H           2.2706   -0.7675    0.0000 H       1  UNL1        0.0311
     22 H           1.6613   -1.3037    0.0000 H       1  UNL1        0.0311
     23 H           5.4121   -3.2095    0.0000 H       1  UNL1        0.0235
     24 H           6.2590   -3.4364    0.0000 H       1  UNL1        0.0235
     25 H           6.4859   -2.5895    0.0000 H       1  UNL1        0.0235
     26 H           6.6250   -2.0704    0.0000 H       1  UNL1        0.0235
     27 H           6.8520   -1.2234    0.0000 H       1  UNL1        0.0235
     28 H           6.0050   -0.9965    0.0000 H       1  UNL1        0.0235
     29 H           1.4174   -2.5608    0.0000 H       1  UNL1        0.0572
     30 H           2.2443   -3.9290    0.0000 H       1  UNL1        0.0274
     31 H           2.8856   -4.5269    0.0000 H       1  UNL1        0.0274
     32 H           3.4836   -3.8857    0.0000 H       1  UNL1        0.0274
     33 H           2.0723    3.1244    0.0000 H       1  UNL1        0.0280
     34 H           1.4523    2.5044    0.0000 H       1  UNL1        0.0280
     35 H           2.0723    1.8844    0.0000 H       1  UNL1        0.0280
     36 H           3.2623    3.9073    0.0000 H       1  UNL1        0.0574
     37 H           4.5723    2.7504    0.0000 H       1  UNL1        0.0272
     38 H           5.1923    3.3704    0.0000 H       1  UNL1        0.0272
     39 H           4.5723    3.9904    0.0000 H       1  UNL1        0.0272
@<TRIPOS>BOND
     1     1     6    1
     2     1    13    1
     3     2    13    2
     4     3     4    1
     5     3     5    1
     6     3     9    1
     7     3    10    1
     8     4     6    1
     9     4     7    1
    10     4    18    1
    11     5     6    1
    12     5     8    1
    13     5    19    1
    14     6    20    1
    15     7    11    1
    16     7    21    1
    17     7    22    1
    18     8    11    2
    19     8    12    1
    20     9    23    1
    21     9    24    1
    22     9    25    1
    23    10    26    1
    24    10    27    1
    25    10    28    1
    26    11    29    1
    27    12    30    1
    28    12    31    1
    29    12    32    1
    30    13    14    1
    31    14    15    1
    32    14    16    2
    33    15    33    1
    34    15    34    1
    35    15    35    1
    36    16    17    1
    37    16    36    1
    38    17    37    1
    39    17    38    1
    40    17    39    1
