@<TRIPOS>MOLECULE
IMPHY000150
 70 74 0 0 0
SMALL
GASTEIGER

@<TRIPOS>ATOM
      1 O           2.6660   -0.4274    0.0000 O.3     1  UNL1       -0.3656
      2 O           2.5369    1.7396    0.0000 O.3     1  UNL1       -0.3889
      3 O           6.9052    1.2365    0.0000 O.2     1  UNL1       -0.2921
      4 O           4.2329    4.5131    0.0000 O.3     1  UNL1       -0.4673
      5 O           6.8671   -1.7604    0.0000 O.3     1  UNL1       -0.4679
      6 O           2.7430    3.6298    0.0000 O.2     1  UNL1       -0.2499
      7 O           5.1350   -1.7604    0.0000 O.2     1  UNL1       -0.2509
      8 O           4.4836   -5.2696    0.0000 O.2     1  UNL1       -0.4707
      9 C           4.2690   -0.2604    0.0000 C.3     1  UNL1        0.0244
     10 C           5.1350    0.2396    0.0000 C.3     1  UNL1       -0.0066
     11 C           5.1350    1.2396    0.0000 C.3     1  UNL1        0.0409
     12 C           3.4030    0.2396    0.0000 C.3     1  UNL1        0.0949
     13 C           4.2690    1.7396    0.0000 C.3     1  UNL1        0.0191
     14 C           3.4030    1.2396    0.0000 C.3     1  UNL1        0.0872
     15 C           4.0598   -1.2322    0.0000 C.2     1  UNL1       -0.0329
     16 C           3.0711   -1.3352    0.0000 C.3     1  UNL1        0.0819
     17 C           4.2529    2.7811    0.0000 C.3     1  UNL1        0.0894
     18 C           5.1350   -0.7604    0.0000 C.3     1  UNL1       -0.0530
     19 C           6.0010   -0.2604    0.0000 C.3     1  UNL1        0.0495
     20 C           2.8673   -2.3022    0.0000 C.3     1  UNL1       -0.0121
     21 C           4.4586   -2.1363    0.0000 C.2     1  UNL1       -0.0628
     22 C           6.0010    0.7396    0.0000 C.3     1  UNL1       -0.0518
     23 C           6.0450    1.7465    0.0000 C.2     1  UNL1        0.1623
     24 C           3.7231   -2.7963    0.0000 C.3     1  UNL1        0.0109
     25 C           5.1510    3.3089    0.0000 C.2     1  UNL1       -0.0639
     26 C           6.0530    2.7881    0.0000 C.2     1  UNL1       -0.0215
     27 C           3.2530    2.7696    0.0000 C.3     1  UNL1       -0.0455
     28 C           3.7430    3.6413    0.0000 C.2     1  UNL1        0.3170
     29 C           5.4362   -2.3468    0.0000 C.3     1  UNL1       -0.0429
     30 C           6.0010   -1.2604    0.0000 C.2     1  UNL1        0.3071
     31 C           3.8267   -3.7909    0.0000 C.ar    1  UNL1       -0.0025
     32 C           3.0830   -4.4594    0.0000 C.ar    1  UNL1       -0.0202
     33 C           4.6923   -4.2916    0.0000 C.ar    1  UNL1        0.0954
     34 C           3.4890   -5.3733    0.0000 C.ar    1  UNL1        0.0920
     35 C           3.7229    5.3733    0.0000 C.3     1  UNL1        0.0817
     36 C           6.8671   -2.7604    0.0000 C.3     1  UNL1        0.0817
     37 H           5.6720    0.5496    0.0000 H       1  UNL1        0.0325
     38 H           2.6260    0.5844    0.0000 H       1  UNL1        0.0631
     39 H           3.5296    2.1590    0.0000 H       1  UNL1        0.0350
     40 H           3.4030    1.8596    0.0000 H       1  UNL1        0.0623
     41 H           2.2258   -1.4252    0.0000 H       1  UNL1        0.0644
     42 H           4.8250   -1.2973    0.0000 H       1  UNL1        0.0239
     43 H           5.6720   -1.0704    0.0000 H       1  UNL1        0.0239
     44 H           5.4450   -0.2234    0.0000 H       1  UNL1        0.0239
     45 H           6.6116   -0.3680    0.0000 H       1  UNL1        0.0381
     46 H           6.2131    0.3223    0.0000 H       1  UNL1        0.0381
     47 H           2.2774   -2.1113    0.0000 H       1  UNL1        0.0302
     48 H           2.6154   -2.8687    0.0000 H       1  UNL1        0.0302
     49 H           5.6910    0.2027    0.0000 H       1  UNL1        0.0239
     50 H           6.5380    0.4296    0.0000 H       1  UNL1        0.0239
     51 H           6.3110    1.2766    0.0000 H       1  UNL1        0.0239
     52 H           3.2030   -3.1337    0.0000 H       1  UNL1        0.0396
     53 H           5.1486    3.9289    0.0000 H       1  UNL1        0.0584
     54 H           6.5912    3.0960    0.0000 H       1  UNL1        0.0650
     55 H           3.2458    3.3896    0.0000 H       1  UNL1        0.0243
     56 H           2.6330    2.7624    0.0000 H       1  UNL1        0.0243
     57 H           3.2602    2.1496    0.0000 H       1  UNL1        0.0243
     58 H           2.0000    1.4296    0.0000 H       1  UNL1        0.2099
     59 H           5.3057   -2.9529    0.0000 H       1  UNL1        0.0275
     60 H           6.0423   -2.4772    0.0000 H       1  UNL1        0.0275
     61 H           5.5667   -1.7406    0.0000 H       1  UNL1        0.0275
     62 H           2.4767   -4.3300    0.0000 H       1  UNL1        0.0652
     63 H           5.2589   -4.0400    0.0000 H       1  UNL1        0.1032
     64 H           3.1785   -5.9099    0.0000 H       1  UNL1        0.1029
     65 H           4.2562    5.6895    0.0000 H       1  UNL1        0.0661
     66 H           3.4067    5.9066    0.0000 H       1  UNL1        0.0661
     67 H           3.1896    5.0571    0.0000 H       1  UNL1        0.0661
     68 H           6.2471   -2.7604    0.0000 H       1  UNL1        0.0661
     69 H           6.8671   -3.3804    0.0000 H       1  UNL1        0.0661
     70 H           7.4871   -2.7604    0.0000 H       1  UNL1        0.0661
@<TRIPOS>BOND
     1     1    12    1
     2     1    16    1
     3    14     2    1
     4     2    58    1
     5     3    23    2
     6     4    28    1
     7     4    35    1
     8     5    30    1
     9     5    36    1
    10     6    28    2
    11     7    30    2
    12     8    33   ar
    13     8    34   ar
    14     9    10    1
    15     9    12    1
    16     9    15    1
    17     9    18    1
    18    10    11    1
    19    10    19    1
    20    10    37    1
    21    11    13    1
    22    11    22    1
    23    11    23    1
    24    12    14    1
    25    12    38    1
    26    13    14    1
    27    13    17    1
    28    13    39    1
    29    14    40    1
    30    15    16    1
    31    15    21    2
    32    16    20    1
    33    16    41    1
    34    17    25    1
    35    17    27    1
    36    17    28    1
    37    18    42    1
    38    18    43    1
    39    18    44    1
    40    19    30    1
    41    19    45    1
    42    19    46    1
    43    20    24    1
    44    20    47    1
    45    20    48    1
    46    21    24    1
    47    21    29    1
    48    22    49    1
    49    22    50    1
    50    22    51    1
    51    23    26    1
    52    24    31    1
    53    24    52    1
    54    25    26    2
    55    25    53    1
    56    26    54    1
    57    27    55    1
    58    27    56    1
    59    27    57    1
    60    29    59    1
    61    29    60    1
    62    29    61    1
    63    31    32   ar
    64    31    33   ar
    65    32    34   ar
    66    32    62    1
    67    33    63    1
    68    34    64    1
    69    35    65    1
    70    35    66    1
    71    35    67    1
    72    36    68    1
    73    36    69    1
    74    36    70    1
