@<TRIPOS>MOLECULE
IMPHY006596
 24 24 0 0 0
SMALL
GASTEIGER

@<TRIPOS>ATOM
      1 O           3.7320   -2.0000    0.0000 O.3     1  UNL1       -0.4260
      2 O           3.7320    2.0000    0.0000 O.3     1  UNL1       -0.4260
      3 O           2.0000   -2.0000    0.0000 O.2     1  UNL1       -0.2507
      4 O           5.4641    2.0000    0.0000 O.2     1  UNL1       -0.2507
      5 C           3.7320   -1.0000    0.0000 C.ar    1  UNL1        0.1318
      6 C           3.7320    1.0000    0.0000 C.ar    1  UNL1        0.1318
      7 C           2.8660   -0.5000    0.0000 C.ar    1  UNL1       -0.0158
      8 C           2.8660    0.5000    0.0000 C.ar    1  UNL1       -0.0158
      9 C           4.5981   -0.5000    0.0000 C.ar    1  UNL1       -0.0158
     10 C           4.5981    0.5000    0.0000 C.ar    1  UNL1       -0.0158
     11 C           2.8660   -2.5000    0.0000 C.2     1  UNL1        0.3092
     12 C           4.5981    2.5000    0.0000 C.2     1  UNL1        0.3092
     13 C           2.8660   -3.5000    0.0000 C.3     1  UNL1        0.0336
     14 C           4.5981    3.5000    0.0000 C.3     1  UNL1        0.0336
     15 H           2.3291   -0.8100    0.0000 H       1  UNL1        0.0655
     16 H           2.3291    0.8100    0.0000 H       1  UNL1        0.0655
     17 H           5.1350   -0.8100    0.0000 H       1  UNL1        0.0655
     18 H           5.1350    0.8100    0.0000 H       1  UNL1        0.0655
     19 H           2.2460   -3.5000    0.0000 H       1  UNL1        0.0342
     20 H           2.8660   -4.1200    0.0000 H       1  UNL1        0.0342
     21 H           3.4860   -3.5000    0.0000 H       1  UNL1        0.0342
     22 H           5.2181    3.5000    0.0000 H       1  UNL1        0.0342
     23 H           4.5981    4.1200    0.0000 H       1  UNL1        0.0342
     24 H           3.9781    3.5000    0.0000 H       1  UNL1        0.0342
@<TRIPOS>BOND
     1     1     5    1
     2     1    11    1
     3     2     6    1
     4     2    12    1
     5     3    11    2
     6     4    12    2
     7     5     7   ar
     8     5     9   ar
     9     6     8   ar
    10     6    10   ar
    11     7     8   ar
    12     7    15    1
    13     8    16    1
    14     9    10   ar
    15     9    17    1
    16    10    18    1
    17    11    13    1
    18    12    14    1
    19    13    19    1
    20    13    20    1
    21    13    21    1
    22    14    22    1
    23    14    23    1
    24    14    24    1
