@<TRIPOS>MOLECULE
IMPHY004555
 27 28 0 0 0
SMALL
GASTEIGER

@<TRIPOS>ATOM
      1 O           2.7369    0.6573    0.0000 O.3     1  UNL1       -0.3632
      2 C           3.9735   -0.1914    0.0000 C.3     1  UNL1        0.0059
      3 C           3.6030    1.1573    0.0000 C.3     1  UNL1        0.0713
      4 C           3.7147   -1.1573    0.0000 C.3     1  UNL1        0.0855
      5 C           2.0000   -0.8096    0.0000 C.3     1  UNL1       -0.0413
      6 C           2.3420   -1.7493    0.0000 C.3     1  UNL1       -0.0197
      7 C           5.3725   -0.7002    0.0000 C.2     1  UNL1       -0.0795
      8 C           5.1137   -1.6661    0.0000 C.2     1  UNL1       -0.0564
      9 C           3.3441    2.1232    0.0000 C.3     1  UNL1       -0.0355
     10 C           4.3101    1.8644    0.0000 C.3     1  UNL1       -0.0355
     11 C           3.4559   -2.1232    0.0000 C.3     1  UNL1       -0.0322
     12 H           3.9543   -1.0411    0.0000 H       1  UNL1        0.0371
     13 H           1.8057   -0.2208    0.0000 H       1  UNL1        0.0273
     14 H           1.4142   -1.0128    0.0000 H       1  UNL1        0.0273
     15 H           1.7636   -1.9726    0.0000 H       1  UNL1        0.0296
     16 H           2.5765   -2.3233    0.0000 H       1  UNL1        0.0296
     17 H           5.9224   -0.4138    0.0000 H       1  UNL1        0.0574
     18 H           5.4000   -2.2160    0.0000 H       1  UNL1        0.0597
     19 H           3.9430    2.2837    0.0000 H       1  UNL1        0.0257
     20 H           3.1837    2.7221    0.0000 H       1  UNL1        0.0257
     21 H           2.7453    1.9627    0.0000 H       1  UNL1        0.0257
     22 H           4.7485    1.4260    0.0000 H       1  UNL1        0.0257
     23 H           4.7485    2.3028    0.0000 H       1  UNL1        0.0257
     24 H           3.8717    2.3028    0.0000 H       1  UNL1        0.0257
     25 H           2.8570   -1.9627    0.0000 H       1  UNL1        0.0260
     26 H           3.2954   -2.7221    0.0000 H       1  UNL1        0.0260
     27 H           4.0548   -2.2837    0.0000 H       1  UNL1        0.0260
@<TRIPOS>BOND
     1     1     3    1
     2     1     4    1
     3     2     3    1
     4     2     5    1
     5     2     7    1
     6     2    12    1
     7     3     9    1
     8     3    10    1
     9     4     6    1
    10     4     8    1
    11     4    11    1
    12     5     6    1
    13     5    13    1
    14     5    14    1
    15     6    15    1
    16     6    16    1
    17     7     8    2
    18     7    17    1
    19     8    18    1
    20     9    19    1
    21     9    20    1
    22     9    21    1
    23    10    22    1
    24    10    23    1
    25    10    24    1
    26    11    25    1
    27    11    26    1
    28    11    27    1
