@<TRIPOS>MOLECULE
IMPHY010788
 52 56 0 0 0
SMALL
GASTEIGER

@<TRIPOS>ATOM
      1 C          20.7385   -7.9388    0.0000 C.3     1  UNL1        0.0336
      2 C          21.8891   -7.2772    0.0000 C.3     1  UNL1       -0.0161
      3 C          21.8891   -5.9541    0.0000 C.3     1  UNL1       -0.0065
      4 C          23.0396   -5.2925    0.0000 C.3     1  UNL1       -0.0193
      5 C          24.1902   -5.9541    0.0000 C.3     1  UNL1       -0.0037
      6 C          25.3120   -5.2925    0.0000 C.3     1  UNL1       -0.0039
      7 C          25.3120   -3.9694    0.0000 C.3     1  UNL1       -0.0222
      8 C          26.4625   -3.3078    0.0000 C.3     1  UNL1       -0.0190
      9 C          27.6130   -3.9694    0.0000 C.3     1  UNL1       -0.0030
     10 C          27.6130   -5.2925    0.0000 C.3     1  UNL1       -0.0003
     11 C          26.4625   -5.9541    0.0000 C.3     1  UNL1       -0.0003
     12 C          19.5880   -7.2772    0.0000 C.3     1  UNL1        0.1683
     13 C          19.5880   -5.9541    0.0000 C.3     1  UNL1        0.0436
     14 C          20.7385   -5.2925    0.0000 C.3     1  UNL1        0.0031
     15 C          23.0396   -7.9388    0.0000 C.3     1  UNL1       -0.0038
     16 C          24.1902   -7.2772    0.0000 C.3     1  UNL1       -0.0006
     17 C          23.0396   -3.9694    0.0000 C.3     1  UNL1       -0.0043
     18 C          24.1902   -3.3078    0.0000 C.3     1  UNL1       -0.0045
     19 C          26.4625   -1.9847    0.0000 C.3     1  UNL1        0.0144
     20 C          27.6130   -1.3231    0.0000 C.2     1  UNL1       -0.0449
     21 C          28.7636   -1.9847    0.0000 C.3     1  UNL1        0.0220
     22 C          28.7636   -3.3078    0.0000 C.3     1  UNL1        0.0040
     23 C          20.0770   -9.0893    0.0000 C.3     1  UNL1        0.0033
     24 C          21.4001   -9.0893    0.0000 C.3     1  UNL1        0.0033
     25 C          21.8891   -4.6022    0.0000 C.3     1  UNL1       -0.0006
     26 C          24.1902   -4.7172    0.0000 C.3     1  UNL1       -0.0003
     27 C          25.3120   -6.7307    0.0000 C.3     1  UNL1       -0.0003
     28 C          28.7636   -4.6022    0.0000 C.3     1  UNL1       -0.0003
     29 O          18.3799   -7.9963    0.0000 O.3     1  UNL1       -0.4523
     30 C          17.2294   -7.3347    0.0000 C.2     1  UNL1        0.3169
     31 O          17.2294   -6.0116    0.0000 O.2     1  UNL1       -0.2501
     32 C          25.3407   -1.2656    0.0000 C.3     1  UNL1        0.0040
     33 C          27.6130    0.0000    0.0000 C.2     1  UNL1       -0.0092
     34 C          16.0788   -7.9963    0.0000 C.3     1  UNL1        0.1096
     35 C          14.9283   -7.3347    0.0000 C.3     1  UNL1        0.0116
     36 C          13.7778   -7.9963    0.0000 C.3     1  UNL1        0.0006
     37 C          12.6560   -7.3347    0.0000 C.3     1  UNL1        0.0000
     38 C          11.5054   -7.9963    0.0000 C.3     1  UNL1        0.0000
     39 C          10.3549   -7.3347    0.0000 C.3     1  UNL1        0.0000
     40 C           9.2043   -7.9963    0.0000 C.3     1  UNL1        0.0000
     41 C           8.0538   -7.3347    0.0000 C.3     1  UNL1        0.0000
     42 C           6.9033   -7.9963    0.0000 C.3     1  UNL1        0.0000
     43 C           5.7527   -7.3347    0.0000 C.3     1  UNL1        0.0000
     44 C           4.6022   -7.9963    0.0000 C.3     1  UNL1        0.0000
     45 C           3.4516   -7.3347    0.0000 C.3     1  UNL1        0.0000
     46 C           2.3011   -7.9963    0.0000 C.3     1  UNL1        0.0000
     47 C           1.1505   -7.3347    0.0000 C.3     1  UNL1        0.0000
     48 C           0.0000   -7.9963    0.0000 C.3     1  UNL1        0.0000
     49 H          23.0396   -6.6444    0.0000 H       1  UNL1        0.0318
     50 H          21.8891   -8.6003    0.0000 H       1  UNL1        0.0319
     51 H          26.5200   -4.6022    0.0000 H       1  UNL1        0.0319
     52 H          25.3120   -2.4737    0.0000 H       1  UNL1        0.0316
@<TRIPOS>BOND
     1     1     2    1
     2     1    12    1
     3     1    23    1
     4     1    24    1
     5     2     3    1
     6     2    15    1
     7     2    50    1
     8     3    14    1
     9     3     4    1
    10     3    25    1
    11     4     5    1
    12     4    17    1
    13     4    49    1
    14     5    16    1
    15     5     6    1
    16     5    26    1
    17     6     7    1
    18     6    11    1
    19     6    27    1
    20     7    18    1
    21     7     8    1
    22     7    52    1
    23     8     9    1
    24     8    19    1
    25     8    51    1
    26     9    10    1
    27     9    22    1
    28     9    28    1
    29    10    11    1
    30    12    13    1
    31    12    29    1
    32    13    14    1
    33    15    16    1
    34    17    18    1
    35    19    20    1
    36    19    32    1
    37    20    21    1
    38    20    33    2
    39    21    22    1
    40    29    30    1
    41    30    31    2
    42    30    34    1
    43    34    35    1
    44    35    36    1
    45    36    37    1
    46    37    38    1
    47    38    39    1
    48    39    40    1
    49    40    41    1
    50    41    42    1
    51    42    43    1
    52    43    44    1
    53    44    45    1
    54    45    46    1
    55    46    47    1
    56    47    48    1
