@<TRIPOS>MOLECULE
IMPHY002108
 86 90 0 0 0
SMALL
GASTEIGER

@<TRIPOS>ATOM
      1 O          10.6603   -3.2709    0.0000 O.3     1  UNL1       -0.3302
      2 O          12.3923   -3.2709    0.0000 O.3     1  UNL1       -0.4572
      3 O          10.6603   -6.2709    0.0000 O.3     1  UNL1       -0.3864
      4 O           8.9282   -5.2709    0.0000 O.3     1  UNL1       -0.3864
      5 O          12.3923   -5.2709    0.0000 O.3     1  UNL1       -0.3829
      6 O           8.0622   -3.7709    0.0000 O.3     1  UNL1       -0.4589
      7 O          10.6603   -2.2709    0.0000 O.3     1  UNL1       -0.5031
      8 O          15.0902    1.6700    0.0000 O.co2   1  UNL1       -0.5435
      9 O          13.5902    2.5360    0.0000 O.co2   1  UNL1       -0.5435
     10 O           7.1962   -2.2709    0.0000 O.2     1  UNL1       -0.2456
     11 O           8.2838    4.2162    0.0000 O.3     1  UNL1       -0.4793
     12 OXT         8.6410    2.5214    0.0000 O.2     1  UNL1       -0.2489
     13 O          12.5085    5.9916    0.0000 O.3     1  UNL1       -0.4763
     14 OXT        10.8621    6.5297    0.0000 O.2     1  UNL1       -0.2437
     15 O           2.0000   -3.2709    0.0000 O.3     1  UNL1       -0.4914
     16 O           2.0000   -5.2709    0.0000 O.3     1  UNL1       -0.5033
     17 N          12.6015    0.7009    0.0000 N.2     1  UNL1       -0.1888
     18 N          10.2408    4.6286    0.0000 N.pl3   1  UNL1       -0.3256
     19 C          10.6603   -5.2709    0.0000 C.3     1  UNL1        0.1152
     20 C           9.7942   -4.7709    0.0000 C.3     1  UNL1        0.1130
     21 C          11.5263   -4.7709    0.0000 C.3     1  UNL1        0.1454
     22 C           9.7942   -3.7709    0.0000 C.3     1  UNL1        0.1250
     23 C          11.5263   -3.7709    0.0000 C.3     1  UNL1        0.2310
     24 C           8.9282   -3.2709    0.0000 C.3     1  UNL1        0.1215
     25 C          13.5902    0.8040    0.0000 C.3     1  UNL1        0.2042
     26 C          13.9953   -0.1038    0.0000 C.3     1  UNL1        0.0470
     27 C          13.2583   -0.7709    0.0000 C.ar    1  UNL1        0.0342
     28 C          12.3923   -0.2709    0.0000 C.ar    1  UNL1        0.2154
     29 C          12.3923   -2.2709    0.0000 C.ar    1  UNL1        0.1659
     30 C          13.2583   -1.7709    0.0000 C.ar    1  UNL1       -0.0065
     31 C          11.5263   -0.7709    0.0000 C.ar    1  UNL1        0.0551
     32 C          11.5263   -1.7709    0.0000 C.ar    1  UNL1        0.1649
     33 C          11.9337    1.4452    0.0000 C.2     1  UNL1        0.1726
     34 C          14.0902    1.6700    0.0000 C.2     1  UNL1        0.1108
     35 C          12.2443    2.3957    0.0000 C.2     1  UNL1        0.0053
     36 C          11.5765    3.1400    0.0000 C.2     1  UNL1       -0.0375
     37 C          10.5980    2.9338    0.0000 C.3     1  UNL1        0.0014
     38 CA          9.9301    3.6781    0.0000 C.3     1  UNL1        0.1224
     39 C           7.1962   -3.2709    0.0000 C.2     1  UNL1        0.3320
     40 C          11.8871    4.0906    0.0000 C.2     1  UNL1       -0.0304
     41 CA         11.2193    4.8348    0.0000 C.2     1  UNL1        0.1130
     42 C           8.9516    3.4719    0.0000 C.2     1  UNL1        0.3255
     43 C           6.3301   -3.7709    0.0000 C.2     1  UNL1        0.0231
     44 C          11.5300    5.7854    0.0000 C.2     1  UNL1        0.3508
     45 C           5.4641   -3.2709    0.0000 C.2     1  UNL1       -0.0477
     46 C           4.5981   -3.7709    0.0000 C.ar    1  UNL1       -0.0211
     47 C           3.7320   -3.2709    0.0000 C.ar    1  UNL1       -0.0092
     48 C           4.5981   -4.7709    0.0000 C.ar    1  UNL1       -0.0509
     49 C           2.8660   -3.7709    0.0000 C.ar    1  UNL1        0.1618
     50 C           3.7320   -5.2709    0.0000 C.ar    1  UNL1       -0.0160
     51 C           2.8660   -4.7709    0.0000 C.ar    1  UNL1        0.1585
     52 C           2.0000   -2.2709    0.0000 C.3     1  UNL1        0.0790
     53 H          11.1972   -5.5809    0.0000 H       1  UNL1        0.0648
     54 H           9.2573   -4.4609    0.0000 H       1  UNL1        0.0647
     55 H          12.0632   -4.4609    0.0000 H       1  UNL1        0.0683
     56 H           9.7942   -3.1509    0.0000 H       1  UNL1        0.0658
     57 H          11.5263   -3.1509    0.0000 H       1  UNL1        0.1084
     58 H           9.3267   -2.7960    0.0000 H       1  UNL1        0.0725
     59 H           8.5297   -2.7960    0.0000 H       1  UNL1        0.0725
     60 H          13.2528    1.3241    0.0000 H       1  UNL1        0.1138
     61 H          14.3608   -0.6047    0.0000 H       1  UNL1        0.0384
     62 H          14.5318    0.2069    0.0000 H       1  UNL1        0.0384
     63 H          13.7953   -2.0809    0.0000 H       1  UNL1        0.0660
     64 H          10.1233   -6.5809    0.0000 H       1  UNL1        0.2100
     65 H           8.9282   -5.8909    0.0000 H       1  UNL1        0.2100
     66 H          12.3923   -5.8909    0.0000 H       1  UNL1        0.2102
     67 H          10.9893   -0.4609    0.0000 H       1  UNL1        0.0722
     68 H          11.3270    1.3174    0.0000 H       1  UNL1        0.1376
     69 H          12.8510    2.5236    0.0000 H       1  UNL1        0.0679
     70 H          10.0716    2.6062    0.0000 H       1  UNL1        0.0337
     71 H          10.8292    2.3586    0.0000 H       1  UNL1        0.0337
     72 HA          9.5161    4.1396    0.0000 H       1  UNL1        0.0617
     73 H          10.1233   -1.9609    0.0000 H       1  UNL1        0.2923
     74 H          12.4938    4.2184    0.0000 H       1  UNL1        0.0641
     75 H           9.8267    5.0901    0.0000 H       1  UNL1        0.1471
     76 H           6.3301   -4.3909    0.0000 H       1  UNL1        0.0689
     77 H           5.4641   -2.6509    0.0000 H       1  UNL1        0.0626
     78 H           7.6771    4.0883    0.0000 H       1  UNL1        0.2951
     79 H          12.7011    6.5809    0.0000 H       1  UNL1        0.2954
     80 H           3.7320   -2.6509    0.0000 H       1  UNL1        0.0661
     81 H           5.1350   -5.0809    0.0000 H       1  UNL1        0.0625
     82 H           3.7320   -5.8909    0.0000 H       1  UNL1        0.0655
     83 H           2.0000   -5.8909    0.0000 H       1  UNL1        0.2923
     84 H           2.6200   -2.2709    0.0000 H       1  UNL1        0.0660
     85 H           2.0000   -1.6509    0.0000 H       1  UNL1        0.0660
     86 H           1.3800   -2.2709    0.0000 H       1  UNL1        0.0660
@<TRIPOS>UNITY_ATOM_ATTR
8 1
charge -1
17 1
charge 1
@<TRIPOS>BOND
     1     1    22    1
     2     1    23    1
     3    23     2    1
     4     2    29    1
     5    19     3    1
     6     3    64    1
     7    20     4    1
     8     4    65    1
     9    21     5    1
    10     5    66    1
    11     6    24    1
    12     6    39    1
    13     7    32    1
    14     7    73    1
    15     8    34   ar
    16     9    34   ar
    17    10    39    2
    18    11    42    1
    19    11    78    1
    20    12    42    2
    21    13    44    1
    22    13    79    1
    23    14    44    2
    24    15    49    1
    25    15    52    1
    26    16    51    1
    27    16    83    1
    28    17    25    1
    29    17    28    1
    30    17    33    2
    31    18    38    1
    32    18    41    1
    33    18    75    1
    34    19    20    1
    35    19    21    1
    36    19    53    1
    37    20    22    1
    38    20    54    1
    39    21    23    1
    40    21    55    1
    41    22    24    1
    42    22    56    1
    43    23    57    1
    44    24    58    1
    45    24    59    1
    46    25    26    1
    47    25    34    1
    48    25    60    1
    49    26    27    1
    50    26    61    1
    51    26    62    1
    52    27    28   ar
    53    27    30   ar
    54    28    31   ar
    55    29    30   ar
    56    29    32   ar
    57    30    63    1
    58    31    32   ar
    59    31    67    1
    60    33    35    1
    61    33    68    1
    62    35    36    2
    63    35    69    1
    64    36    37    1
    65    36    40    1
    66    37    38    1
    67    37    70    1
    68    37    71    1
    69    38    42    1
    70    38    72    1
    71    39    43    1
    72    40    41    2
    73    40    74    1
    74    41    44    1
    75    43    45    2
    76    43    76    1
    77    45    46    1
    78    45    77    1
    79    46    47   ar
    80    46    48   ar
    81    47    49   ar
    82    47    80    1
    83    48    50   ar
    84    48    81    1
    85    49    51   ar
    86    50    51   ar
    87    50    82    1
    88    52    84    1
    89    52    85    1
    90    52    86    1
