@<TRIPOS>MOLECULE
IMPHY015771
 23 22 0 0 0
SMALL
GASTEIGER

@<TRIPOS>ATOM
      1 O           5.4641    0.7500    0.0000 O.3     1  UNL1       -0.4619
      2 O           4.5981   -0.7500    0.0000 O.2     1  UNL1       -0.2508
      3 C           6.3301    0.2500    0.0000 C.3     1  UNL1        0.0975
      4 C           3.7320    0.7500    0.0000 C.3     1  UNL1        0.0447
      5 C           2.8660    0.2500    0.0000 C.3     1  UNL1       -0.0458
      6 C           4.5981    0.2500    0.0000 C.2     1  UNL1        0.3073
      7 C           7.1962    0.7500    0.0000 C.3     1  UNL1       -0.0280
      8 C           6.3301   -0.7500    0.0000 C.3     1  UNL1       -0.0280
      9 C           2.0000    0.7500    0.0000 C.3     1  UNL1       -0.0648
     10 H           5.7932   -0.0600    0.0000 H       1  UNL1        0.0728
     11 H           4.1306    1.2250    0.0000 H       1  UNL1        0.0377
     12 H           3.3335    1.2250    0.0000 H       1  UNL1        0.0377
     13 H           2.4675   -0.2249    0.0000 H       1  UNL1        0.0268
     14 H           3.2646   -0.2249    0.0000 H       1  UNL1        0.0268
     15 H           7.5062    0.2131    0.0000 H       1  UNL1        0.0265
     16 H           7.7331    1.0600    0.0000 H       1  UNL1        0.0265
     17 H           6.8862    1.2869    0.0000 H       1  UNL1        0.0265
     18 H           5.7101   -0.7500    0.0000 H       1  UNL1        0.0265
     19 H           6.3301   -1.3700    0.0000 H       1  UNL1        0.0265
     20 H           6.9501   -0.7500    0.0000 H       1  UNL1        0.0265
     21 H           2.3100    1.2869    0.0000 H       1  UNL1        0.0230
     22 H           1.4631    1.0600    0.0000 H       1  UNL1        0.0230
     23 H           1.6900    0.2131    0.0000 H       1  UNL1        0.0230
@<TRIPOS>BOND
     1     1     3    1
     2     1     6    1
     3     2     6    2
     4     3     7    1
     5     3     8    1
     6     3    10    1
     7     4     5    1
     8     4     6    1
     9     4    11    1
    10     4    12    1
    11     5     9    1
    12     5    13    1
    13     5    14    1
    14     7    15    1
    15     7    16    1
    16     7    17    1
    17     8    18    1
    18     8    19    1
    19     8    20    1
    20     9    21    1
    21     9    22    1
    22     9    23    1
