@<TRIPOS>MOLECULE
IMPHY016554
 39 40 0 0 0
SMALL
GASTEIGER

@<TRIPOS>ATOM
      1 C           3.7320    0.7500    0.0000 C.3     1  UNL1        0.0012
      2 C           3.7320   -0.2500    0.0000 C.2     1  UNL1       -0.0624
      3 C           5.5321   -0.2708    0.0000 C.3     1  UNL1       -0.0401
      4 C           4.6260    1.2847    0.0000 C.3     1  UNL1       -0.0425
      5 C           4.6260   -0.7847    0.0000 C.3     1  UNL1       -0.0283
      6 C           5.5321    0.7708    0.0000 C.3     1  UNL1       -0.0493
      7 C           2.8660   -0.7500    0.0000 C.2     1  UNL1       -0.0634
      8 C           2.8660    1.2500    0.0000 C.2     1  UNL1       -0.0692
      9 C           2.0000   -0.2500    0.0000 C.3     1  UNL1       -0.0128
     10 C           2.8660   -1.7500    0.0000 C.3     1  UNL1       -0.0250
     11 C           2.0000    0.7500    0.0000 C.2     1  UNL1       -0.0804
     12 C           6.3961   -0.7742    0.0000 C.3     1  UNL1       -0.0621
     13 C           2.8660    2.2500    0.0000 C.3     1  UNL1       -0.0432
     14 C           2.0000   -2.2500    0.0000 C.3     1  UNL1       -0.0589
     15 C           3.7320   -2.2500    0.0000 C.3     1  UNL1       -0.0589
     16 H           3.7273    1.3700    0.0000 H       1  UNL1        0.0391
     17 H           5.5285   -0.8908    0.0000 H       1  UNL1        0.0301
     18 H           5.0196    1.7637    0.0000 H       1  UNL1        0.0274
     19 H           4.2214    1.7544    0.0000 H       1  UNL1        0.0274
     20 H           4.2214   -1.2544    0.0000 H       1  UNL1        0.0313
     21 H           5.0196   -1.2637    0.0000 H       1  UNL1        0.0313
     22 H           6.1429    0.6647    0.0000 H       1  UNL1        0.0268
     23 H           5.7411    1.3545    0.0000 H       1  UNL1        0.0268
     24 H           1.3894   -0.1423    0.0000 H       1  UNL1        0.0353
     25 H           1.7880   -0.8326    0.0000 H       1  UNL1        0.0353
     26 H           2.8660   -2.3700    0.0000 H       1  UNL1        0.0340
     27 H           1.4631    1.0600    0.0000 H       1  UNL1        0.0575
     28 H           6.0841   -1.3099    0.0000 H       1  UNL1        0.0233
     29 H           6.9319   -1.0862    0.0000 H       1  UNL1        0.0233
     30 H           6.7082   -0.2384    0.0000 H       1  UNL1        0.0233
     31 H           3.4860    2.2500    0.0000 H       1  UNL1        0.0275
     32 H           2.8660    2.8700    0.0000 H       1  UNL1        0.0275
     33 H           2.2460    2.2500    0.0000 H       1  UNL1        0.0275
     34 H           1.6900   -1.7131    0.0000 H       1  UNL1        0.0235
     35 H           1.4631   -2.5600    0.0000 H       1  UNL1        0.0235
     36 H           2.3100   -2.7869    0.0000 H       1  UNL1        0.0235
     37 H           3.4220   -2.7869    0.0000 H       1  UNL1        0.0235
     38 H           4.2690   -2.5600    0.0000 H       1  UNL1        0.0235
     39 H           4.0420   -1.7131    0.0000 H       1  UNL1        0.0235
@<TRIPOS>BOND
     1     1     2    1
     2     1     4    1
     3     1     8    1
     4     1    16    1
     5     2     5    1
     6     2     7    2
     7     3     5    1
     8     3     6    1
     9     3    12    1
    10     3    17    1
    11     4     6    1
    12     4    18    1
    13     4    19    1
    14     5    20    1
    15     5    21    1
    16     6    22    1
    17     6    23    1
    18     7     9    1
    19     7    10    1
    20     8    11    2
    21     8    13    1
    22     9    11    1
    23     9    24    1
    24     9    25    1
    25    10    14    1
    26    10    15    1
    27    10    26    1
    28    11    27    1
    29    12    28    1
    30    12    29    1
    31    12    30    1
    32    13    31    1
    33    13    32    1
    34    13    33    1
    35    14    34    1
    36    14    35    1
    37    14    36    1
    38    15    37    1
    39    15    38    1
    40    15    39    1
