@<TRIPOS>MOLECULE
IMPHY011168
 39 41 0 0 0
SMALL
GASTEIGER

@<TRIPOS>ATOM
      1 O           6.3580   -2.7100    0.0000 O.2     1  UNL1       -0.4219
      2 O           4.5981    0.3247    0.0000 O.3     1  UNL1       -0.5052
      3 O           2.8660   -2.6753    0.0000 O.3     1  UNL1       -0.4942
      4 O           8.0784    0.3793    0.0000 O.3     1  UNL1       -0.4944
      5 O           8.1282   -2.6994    0.0000 O.2     1  UNL1       -0.2452
      6 O           6.3118    3.3591    0.0000 O.3     1  UNL1       -0.5066
      7 O           2.0000   -1.1753    0.0000 O.2     1  UNL1       -0.2955
      8 C           5.4641   -1.1753    0.0000 C.ar    1  UNL1        0.0677
      9 C           6.3580   -0.6406    0.0000 C.ar    1  UNL1        0.0066
     10 C           5.4641   -2.1753    0.0000 C.ar    1  UNL1        0.1466
     11 C           6.3465    0.3593    0.0000 C.ar    1  UNL1        0.0250
     12 C           4.5981   -0.6753    0.0000 C.ar    1  UNL1        0.1418
     13 C           3.7320   -1.1753    0.0000 C.ar    1  UNL1        0.0979
     14 C           4.5981   -2.6753    0.0000 C.ar    1  UNL1        0.0240
     15 C           7.2641   -1.1545    0.0000 C.ar    1  UNL1        0.0315
     16 C           3.7320   -2.1753    0.0000 C.ar    1  UNL1        0.1373
     17 C           7.2067    0.8693    0.0000 C.ar    1  UNL1        0.1312
     18 C           5.4747    0.8493    0.0000 C.ar    1  UNL1       -0.0471
     19 C           7.2641   -2.1961    0.0000 C.ar    1  UNL1        0.3378
     20 C           7.1951    1.8692    0.0000 C.ar    1  UNL1        0.0221
     21 C           5.4632    1.8492    0.0000 C.ar    1  UNL1       -0.0194
     22 C           6.3233    2.3592    0.0000 C.ar    1  UNL1        0.1204
     23 C           2.8660   -0.6753    0.0000 C.2     1  UNL1        0.1572
     24 C           2.8660   -3.6753    0.0000 C.3     1  UNL1        0.0788
     25 C           8.9386    0.8893    0.0000 C.3     1  UNL1        0.0788
     26 H           4.5981   -3.2953    0.0000 H       1  UNL1        0.0691
     27 H           7.7998   -0.8424    0.0000 H       1  UNL1        0.0695
     28 H           4.9414    0.5331    0.0000 H       1  UNL1        0.0626
     29 H           7.7284    2.1854    0.0000 H       1  UNL1        0.0691
     30 H           4.9227    2.1530    0.0000 H       1  UNL1        0.0654
     31 H           2.8660   -0.0553    0.0000 H       1  UNL1        0.1084
     32 H           4.0611    0.6347    0.0000 H       1  UNL1        0.2922
     33 H           2.2460   -3.6753    0.0000 H       1  UNL1        0.0660
     34 H           2.8660   -4.2953    0.0000 H       1  UNL1        0.0660
     35 H           3.4860   -3.6753    0.0000 H       1  UNL1        0.0660
     36 H           9.2548    0.3560    0.0000 H       1  UNL1        0.0660
     37 H           9.4719    1.2055    0.0000 H       1  UNL1        0.0660
     38 H           8.6224    1.4226    0.0000 H       1  UNL1        0.0660
     39 H           6.8451    3.6753    0.0000 H       1  UNL1        0.2921
@<TRIPOS>BOND
     1     1    10   ar
     2     1    19   ar
     3     2    12    1
     4     2    32    1
     5     3    16    1
     6     3    24    1
     7     4    17    1
     8     4    25    1
     9     5    19    2
    10     6    22    1
    11     6    39    1
    12     7    23    2
    13     8     9   ar
    14     8    10   ar
    15     8    12   ar
    16     9    11    1
    17     9    15   ar
    18    10    14   ar
    19    11    17   ar
    20    11    18   ar
    21    12    13   ar
    22    13    16   ar
    23    13    23    1
    24    14    16   ar
    25    14    26    1
    26    15    19   ar
    27    15    27    1
    28    17    20   ar
    29    18    21   ar
    30    18    28    1
    31    20    22   ar
    32    20    29    1
    33    21    22   ar
    34    21    30    1
    35    23    31    1
    36    24    33    1
    37    24    34    1
    38    24    35    1
    39    25    36    1
    40    25    37    1
    41    25    38    1
