@<TRIPOS>MOLECULE
IMPHY016241
 24 26 0 0 0
SMALL
GASTEIGER

@<TRIPOS>ATOM
      1 O           8.0321    0.2492    0.0000 O.3     1  UNL1       -0.5068
      2 C           4.5274    1.1618    0.0000 C.3     1  UNL1       -0.0011
      3 C           5.3364    0.5740    0.0000 C.ar    1  UNL1       -0.0319
      4 C           3.7183    0.5740    0.0000 C.ar    1  UNL1       -0.0353
      5 C           5.0274   -0.3771    0.0000 C.ar    1  UNL1       -0.0139
      6 C           4.0274   -0.3771    0.0000 C.ar    1  UNL1       -0.0141
      7 C           6.3518    0.8063    0.0000 C.ar    1  UNL1       -0.0161
      8 C           5.7123   -1.1618    0.0000 C.ar    1  UNL1       -0.0503
      9 C           2.7029    0.8063    0.0000 C.ar    1  UNL1       -0.0577
     10 C           3.3424   -1.1618    0.0000 C.ar    1  UNL1       -0.0538
     11 C           7.0547    0.0376    0.0000 C.ar    1  UNL1        0.1172
     12 C           6.7328   -0.9531    0.0000 C.ar    1  UNL1       -0.0196
     13 C           2.0000    0.0376    0.0000 C.ar    1  UNL1       -0.0615
     14 C           2.3219   -0.9531    0.0000 C.ar    1  UNL1       -0.0612
     15 H           4.9422    1.6225    0.0000 H       1  UNL1        0.0362
     16 H           4.1125    1.6225    0.0000 H       1  UNL1        0.0362
     17 H           6.5365    1.3981    0.0000 H       1  UNL1        0.0657
     18 H           5.5139   -1.7492    0.0000 H       1  UNL1        0.0625
     19 H           2.5182    1.3981    0.0000 H       1  UNL1        0.0621
     20 H           3.5408   -1.7492    0.0000 H       1  UNL1        0.0624
     21 H           7.1459   -1.4154    0.0000 H       1  UNL1        0.0654
     22 H           1.3940    0.1688    0.0000 H       1  UNL1        0.0618
     23 H           1.9088   -1.4154    0.0000 H       1  UNL1        0.0618
     24 H           8.4487   -0.2099    0.0000 H       1  UNL1        0.2921
@<TRIPOS>BOND
     1     1    11    1
     2     1    24    1
     3     2     3    1
     4     2     4    1
     5     2    15    1
     6     2    16    1
     7     3     5   ar
     8     3     7   ar
     9     4     6   ar
    10     4     9   ar
    11     5     6    1
    12     5     8   ar
    13     6    10   ar
    14     7    11   ar
    15     7    17    1
    16     8    12   ar
    17     8    18    1
    18     9    13   ar
    19     9    19    1
    20    10    14   ar
    21    10    20    1
    22    11    12   ar
    23    12    21    1
    24    13    14   ar
    25    13    22    1
    26    14    23    1
