@<TRIPOS>MOLECULE
IMPHY011233
 35 38 0 0 0
SMALL
GASTEIGER

@<TRIPOS>ATOM
      1 O           7.8003    2.0446    0.0000 O.3     1  UNL1       -0.3839
      2 O           6.0682    3.0446    0.0000 O.3     1  UNL1       -0.4887
      3 O           5.4812   -2.5121    0.0000 O.3     1  UNL1       -0.5033
      4 O           7.5123   -2.7238    0.0000 O.3     1  UNL1       -0.5033
      5 O           2.5381    3.0687    0.0000 O.3     1  UNL1       -0.5066
      6 C           6.9343    1.5446    0.0000 C.3     1  UNL1        0.1146
      7 C           6.0682    1.0446    0.0000 C.3     1  UNL1        0.0453
      8 C           7.6713    0.8775    0.0000 C.3     1  UNL1        0.0058
      9 C           6.2775    0.0727    0.0000 C.ar    1  UNL1       -0.0300
     10 C           7.2662   -0.0303    0.0000 C.ar    1  UNL1       -0.0370
     11 C           6.9343    2.5446    0.0000 C.3     1  UNL1        0.1194
     12 C           5.2022    1.5446    0.0000 C.ar    1  UNL1        0.0048
     13 C           5.2022    2.5446    0.0000 C.ar    1  UNL1        0.1279
     14 C           5.6567   -0.7560    0.0000 C.ar    1  UNL1       -0.0124
     15 C           7.7027   -0.9693    0.0000 C.ar    1  UNL1       -0.0130
     16 C           4.3083    1.0099    0.0000 C.ar    1  UNL1       -0.0510
     17 C           6.0714   -1.7048    0.0000 C.ar    1  UNL1        0.1585
     18 C           7.1013   -1.8122    0.0000 C.ar    1  UNL1        0.1585
     19 C           4.3083    3.0792    0.0000 C.ar    1  UNL1        0.0218
     20 C           3.4022    1.5238    0.0000 C.ar    1  UNL1       -0.0197
     21 C           3.4022    2.5654    0.0000 C.ar    1  UNL1        0.1203
     22 H           5.3812    0.5441    0.0000 H       1  UNL1        0.0428
     23 H           8.2078    0.5667    0.0000 H       1  UNL1        0.0342
     24 H           8.0367    1.3783    0.0000 H       1  UNL1        0.0342
     25 H           7.5449    2.4369    0.0000 H       1  UNL1        0.0726
     26 H           7.1463    3.1272    0.0000 H       1  UNL1        0.0726
     27 H           5.0408   -0.6846    0.0000 H       1  UNL1        0.0658
     28 H           8.3372    1.7346    0.0000 H       1  UNL1        0.2104
     29 H           8.3200   -1.0264    0.0000 H       1  UNL1        0.0658
     30 H           4.3154    0.3899    0.0000 H       1  UNL1        0.0623
     31 H           4.3154    3.6992    0.0000 H       1  UNL1        0.0691
     32 H           2.8665    1.2117    0.0000 H       1  UNL1        0.0654
     33 H           5.7317   -3.0792    0.0000 H       1  UNL1        0.2923
     34 H           8.1292   -2.7857    0.0000 H       1  UNL1        0.2923
     35 H           2.0000    2.7608    0.0000 H       1  UNL1        0.2921
@<TRIPOS>BOND
     1     6     1    1
     2     1    28    1
     3     2    11    1
     4     2    13    1
     5     3    17    1
     6     3    33    1
     7     4    18    1
     8     4    34    1
     9     5    21    1
    10     5    35    1
    11     6     7    1
    12     6     8    1
    13     6    11    1
    14     7     9    1
    15     7    12    1
    16     7    22    1
    17     8    10    1
    18     8    23    1
    19     8    24    1
    20     9    10   ar
    21     9    14   ar
    22    10    15   ar
    23    11    25    1
    24    11    26    1
    25    12    13   ar
    26    12    16   ar
    27    13    19   ar
    28    14    17   ar
    29    14    27    1
    30    15    18   ar
    31    15    29    1
    32    16    20   ar
    33    16    30    1
    34    17    18   ar
    35    19    21   ar
    36    19    31    1
    37    20    21   ar
    38    20    32    1
