@<TRIPOS>MOLECULE
IMPHY007688
 49 51 0 0 0
SMALL
GASTEIGER

@<TRIPOS>ATOM
      1 O           4.4487    1.5000    0.0000 O.2     1  UNL1       -0.2706
      2 O          14.9212    0.3047    0.0000 O.3     1  UNL1       -0.4526
      3 O          14.9212   -1.3047    0.0000 O.3     1  UNL1       -0.4526
      4 N           3.5827    0.0000    0.0000 N.am    1  UNL1       -0.2980
      5 C           2.5000   -1.2024    0.0000 C.3     1  UNL1       -0.0357
      6 C           2.0000   -0.3364    0.0000 C.3     1  UNL1       -0.0357
      7 C           3.4782   -0.9945    0.0000 C.3     1  UNL1        0.0150
      8 C           2.6691    0.4067    0.0000 C.3     1  UNL1        0.0150
      9 C           4.4487    0.5000    0.0000 C.2     1  UNL1        0.2391
     10 C           7.9128    0.5000    0.0000 C.3     1  UNL1       -0.0493
     11 C           5.3147    0.0000    0.0000 C.2     1  UNL1       -0.0036
     12 C           7.0468    0.0000    0.0000 C.3     1  UNL1       -0.0343
     13 C           8.7788    0.0000    0.0000 C.3     1  UNL1       -0.0493
     14 C           6.1808    0.5000    0.0000 C.2     1  UNL1       -0.0791
     15 C           9.6448    0.5000    0.0000 C.3     1  UNL1       -0.0344
     16 C          10.5109    0.0000    0.0000 C.2     1  UNL1       -0.0835
     17 C          11.3769    0.5000    0.0000 C.2     1  UNL1       -0.0584
     18 C          12.2429    0.0000    0.0000 C.ar    1  UNL1       -0.0216
     19 C          13.9750    0.0000    0.0000 C.ar    1  UNL1        0.1668
     20 C          13.1090    0.5000    0.0000 C.ar    1  UNL1       -0.0090
     21 C          13.9750   -1.0000    0.0000 C.ar    1  UNL1        0.1663
     22 C          12.2429   -1.0000    0.0000 C.ar    1  UNL1       -0.0509
     23 C          13.1090   -1.5000    0.0000 C.ar    1  UNL1       -0.0156
     24 C          15.5048   -0.5000    0.0000 C.3     1  UNL1        0.2332
     25 H           1.5851    0.1243    0.0000 H       1  UNL1        0.0281
     26 H           1.4984   -0.7008    0.0000 H       1  UNL1        0.0281
     27 H           1.9336   -1.4546    0.0000 H       1  UNL1        0.0281
     28 H           2.6916   -1.7921    0.0000 H       1  UNL1        0.0281
     29 H           3.5430   -1.6111    0.0000 H       1  UNL1        0.0465
     30 H           4.0982   -0.9945    0.0000 H       1  UNL1        0.0465
     31 H           2.9791    0.9437    0.0000 H       1  UNL1        0.0465
     32 H           2.1675    0.7712    0.0000 H       1  UNL1        0.0465
     33 H           8.3113    0.9749    0.0000 H       1  UNL1        0.0268
     34 H           7.5143    0.9749    0.0000 H       1  UNL1        0.0268
     35 H           5.3147   -0.6200    0.0000 H       1  UNL1        0.0666
     36 H           6.6482   -0.4749    0.0000 H       1  UNL1        0.0307
     37 H           7.4453   -0.4749    0.0000 H       1  UNL1        0.0307
     38 H           8.3803   -0.4749    0.0000 H       1  UNL1        0.0268
     39 H           9.1774   -0.4749    0.0000 H       1  UNL1        0.0268
     40 H           6.1808    1.1200    0.0000 H       1  UNL1        0.0574
     41 H          10.0434    0.9749    0.0000 H       1  UNL1        0.0307
     42 H           9.2463    0.9749    0.0000 H       1  UNL1        0.0307
     43 H          10.5109   -0.6200    0.0000 H       1  UNL1        0.0572
     44 H          11.3769    1.1200    0.0000 H       1  UNL1        0.0620
     45 H          13.1090    1.1200    0.0000 H       1  UNL1        0.0661
     46 H          11.7060   -1.3100    0.0000 H       1  UNL1        0.0625
     47 H          13.1090   -2.1200    0.0000 H       1  UNL1        0.0655
     48 H          15.9657   -0.9147    0.0000 H       1  UNL1        0.1166
     49 H          15.9657   -0.0853    0.0000 H       1  UNL1        0.1166
@<TRIPOS>BOND
     1     1     9    2
     2     2    19    1
     3     2    24    1
     4     3    21    1
     5     3    24    1
     6     4     7    1
     7     4     8    1
     8     4     9   am
     9     5     6    1
    10     5     7    1
    11     5    27    1
    12     5    28    1
    13     6     8    1
    14     6    25    1
    15     6    26    1
    16     7    29    1
    17     7    30    1
    18     8    31    1
    19     8    32    1
    20     9    11    1
    21    10    12    1
    22    10    13    1
    23    10    33    1
    24    10    34    1
    25    11    14    2
    26    11    35    1
    27    12    14    1
    28    12    36    1
    29    12    37    1
    30    13    15    1
    31    13    38    1
    32    13    39    1
    33    14    40    1
    34    15    16    1
    35    15    41    1
    36    15    42    1
    37    16    17    2
    38    16    43    1
    39    17    18    1
    40    17    44    1
    41    18    20   ar
    42    18    22   ar
    43    19    20   ar
    44    19    21   ar
    45    20    45    1
    46    21    23   ar
    47    22    23   ar
    48    22    46    1
    49    23    47    1
    50    24    48    1
    51    24    49    1
