@<TRIPOS>MOLECULE
IMPHY003612
 46 51 0 0 0
SMALL
GASTEIGER

@<TRIPOS>ATOM
      1 O           4.9376   -0.8065    0.0000 O.3     1  UNL1       -0.3211
      2 O           5.1985    0.8749    0.0000 O.3     1  UNL1       -0.3424
      3 O           2.0635   -2.4880    0.0000 O.3     1  UNL1       -0.4567
      4 O           5.5208   -1.9892    0.0000 O.3     1  UNL1       -0.3660
      5 O           2.2009   -4.2590    0.0000 O.2     1  UNL1       -0.2453
      6 O           5.1880    4.2590    0.0000 O.2     1  UNL1       -0.4707
      7 C           3.6310    0.5000    0.0000 C.3     1  UNL1        0.0492
      8 C           3.6310   -2.1131    0.0000 C.3     1  UNL1        0.0937
      9 C           3.2650   -0.8065    0.0000 C.3     1  UNL1       -0.0087
     10 C           2.7071   -1.7304    0.0000 C.3     1  UNL1        0.1217
     11 C           4.5549    0.1174    0.0000 C.3     1  UNL1        0.1724
     12 C           3.7116    1.4908    0.0000 C.3     1  UNL1       -0.0079
     13 C           4.5549   -1.7304    0.0000 C.3     1  UNL1        0.1727
     14 C           2.7071    0.1174    0.0000 C.2     1  UNL1       -0.0618
     15 C           4.0533   -1.4163    0.0000 C.3     1  UNL1       -0.0447
     16 C           2.3244   -0.8065    0.0000 C.3     1  UNL1        0.0070
     17 C           3.5504   -3.1039    0.0000 C.2     1  UNL1        0.0475
     18 C           4.6784    1.7221    0.0000 C.3     1  UNL1        0.0905
     19 C           4.6841   -2.4948    0.0000 C.3     1  UNL1       -0.0337
     20 C           4.5371   -3.2445    0.0000 C.2     1  UNL1       -0.0732
     21 C           2.5836   -3.3351    0.0000 C.2     1  UNL1        0.3360
     22 C           2.0000    0.8245    0.0000 C.2     1  UNL1       -0.0986
     23 C           5.0610    2.6460    0.0000 C.ar    1  UNL1        0.0189
     24 C           6.0334    2.8794    0.0000 C.ar    1  UNL1       -0.0183
     25 C           4.5386    3.4986    0.0000 C.ar    1  UNL1        0.0973
     26 C           6.1119    3.8763    0.0000 C.ar    1  UNL1        0.0920
     27 H           2.4150   -0.8065    0.0000 H       1  UNL1        0.0322
     28 H           1.8674   -1.5985    0.0000 H       1  UNL1        0.0748
     29 H           5.3946   -0.0145    0.0000 H       1  UNL1        0.0920
     30 H           3.6315    2.1057    0.0000 H       1  UNL1        0.0304
     31 H           3.0917    1.4759    0.0000 H       1  UNL1        0.0304
     32 H           4.6105   -2.5786    0.0000 H       1  UNL1        0.0919
     33 H           4.6678   -1.3339    0.0000 H       1  UNL1        0.0271
     34 H           3.5875   -1.8255    0.0000 H       1  UNL1        0.0271
     35 H           1.8325   -0.4291    0.0000 H       1  UNL1        0.0346
     36 H           1.8325   -1.1840    0.0000 H       1  UNL1        0.0346
     37 H           5.5257    1.7891    0.0000 H       1  UNL1        0.0648
     38 H           5.2351   -2.7791    0.0000 H       1  UNL1        0.0308
     39 H           5.1107   -2.0450    0.0000 H       1  UNL1        0.0308
     40 H           4.8962   -3.7499    0.0000 H       1  UNL1        0.0577
     41 H           2.1605    1.4233    0.0000 H       1  UNL1        0.0535
     42 H           1.4011    0.6640    0.0000 H       1  UNL1        0.0535
     43 H           5.9592   -1.5508    0.0000 H       1  UNL1        0.2125
     44 H           6.5049    2.4767    0.0000 H       1  UNL1        0.0652
     45 H           3.9205    3.5472    0.0000 H       1  UNL1        0.1033
     46 H           6.6405    4.2003    0.0000 H       1  UNL1        0.1029
@<TRIPOS>BOND
     1     1    11    1
     2     1    13    1
     3     2    11    1
     4     2    18    1
     5     3    10    1
     6     3    21    1
     7     4    13    1
     8     4    43    1
     9     5    21    2
    10     6    25   ar
    11     6    26   ar
    12     7     9    1
    13     7    11    1
    14     7    12    1
    15     7    14    1
    16     8     9    1
    17     8    10    1
    18     8    13    1
    19     8    17    1
    20     9    15    1
    21     9    27    1
    22    10    16    1
    23    10    28    1
    24    11    29    1
    25    12    18    1
    26    12    30    1
    27    12    31    1
    28    13    32    1
    29    14    16    1
    30    14    22    2
    31    15    19    1
    32    15    33    1
    33    15    34    1
    34    16    35    1
    35    16    36    1
    36    17    20    2
    37    17    21    1
    38    18    23    1
    39    18    37    1
    40    19    20    1
    41    19    38    1
    42    19    39    1
    43    20    40    1
    44    22    41    1
    45    22    42    1
    46    23    24   ar
    47    23    25   ar
    48    24    26   ar
    49    24    44    1
    50    25    45    1
    51    26    46    1
