@<TRIPOS>MOLECULE
IMPHY003913
 55 57 0 0 0
SMALL
GASTEIGER

@<TRIPOS>ATOM
      1 O           4.5691   -0.0064    0.0000 O.3     1  UNL1       -0.3636
      2 O           2.0280   -3.5942    0.0000 O.3     1  UNL1       -0.4914
      3 O           7.4247    2.3536    0.0000 O.3     1  UNL1       -0.4914
      4 O           3.7601   -4.5942    0.0000 O.3     1  UNL1       -0.4915
      5 O           6.6112    4.1807    0.0000 O.3     1  UNL1       -0.4915
      6 C           2.9511   -0.0064    0.0000 C.3     1  UNL1       -0.0081
      7 C           3.2601    0.9446    0.0000 C.3     1  UNL1       -0.0081
      8 C           4.2601    0.9446    0.0000 C.3     1  UNL1        0.0874
      9 C           3.7601   -0.5942    0.0000 C.3     1  UNL1        0.0874
     10 C           2.0000   -0.3155    0.0000 C.3     1  UNL1       -0.0594
     11 C           2.6723    1.7536    0.0000 C.3     1  UNL1       -0.0594
     12 C           3.7601   -1.5942    0.0000 C.ar    1  UNL1       -0.0149
     13 C           4.8479    1.7536    0.0000 C.ar    1  UNL1       -0.0149
     14 C           2.8940   -2.0942    0.0000 C.ar    1  UNL1       -0.0107
     15 C           5.8424    1.6491    0.0000 C.ar    1  UNL1       -0.0107
     16 C           4.6261   -2.0942    0.0000 C.ar    1  UNL1       -0.0524
     17 C           4.4411    2.6672    0.0000 C.ar    1  UNL1       -0.0524
     18 C           2.8940   -3.0942    0.0000 C.ar    1  UNL1        0.1618
     19 C           6.4302    2.4581    0.0000 C.ar    1  UNL1        0.1618
     20 C           4.6261   -3.0942    0.0000 C.ar    1  UNL1       -0.0160
     21 C           5.0289    3.4762    0.0000 C.ar    1  UNL1       -0.0160
     22 C           3.7601   -3.5942    0.0000 C.ar    1  UNL1        0.1615
     23 C           6.0234    3.3717    0.0000 C.ar    1  UNL1        0.1615
     24 C           2.0280   -4.5942    0.0000 C.3     1  UNL1        0.0790
     25 C           8.0125    3.1626    0.0000 C.3     1  UNL1        0.0790
     26 C           4.6261   -5.0942    0.0000 C.3     1  UNL1        0.0790
     27 C           6.2045    5.0942    0.0000 C.3     1  UNL1        0.0790
     28 H           2.5126    0.4320    0.0000 H       1  UNL1        0.0330
     29 H           2.6477    0.8476    0.0000 H       1  UNL1        0.0330
     30 H           4.3125   -0.8757    0.0000 H       1  UNL1        0.0649
     31 H           4.8724    0.8476    0.0000 H       1  UNL1        0.0649
     32 H           3.1739    2.1181    0.0000 H       1  UNL1        0.0233
     33 H           2.3079    2.2552    0.0000 H       1  UNL1        0.0233
     34 H           2.1707    1.3892    0.0000 H       1  UNL1        0.0233
     35 H           1.8084    0.2742    0.0000 H       1  UNL1        0.0233
     36 H           1.4103   -0.5070    0.0000 H       1  UNL1        0.0233
     37 H           2.1916   -0.9051    0.0000 H       1  UNL1        0.0233
     38 H           2.3571   -1.7842    0.0000 H       1  UNL1        0.0659
     39 H           6.0946    1.0827    0.0000 H       1  UNL1        0.0659
     40 H           5.1630   -1.7842    0.0000 H       1  UNL1        0.0622
     41 H           3.8245    2.7320    0.0000 H       1  UNL1        0.0622
     42 H           5.1630   -3.4042    0.0000 H       1  UNL1        0.0655
     43 H           4.7767    4.0426    0.0000 H       1  UNL1        0.0655
     44 H           1.4080   -4.5942    0.0000 H       1  UNL1        0.0660
     45 H           2.0280   -5.2142    0.0000 H       1  UNL1        0.0660
     46 H           2.6480   -4.5942    0.0000 H       1  UNL1        0.0660
     47 H           8.5141    2.7982    0.0000 H       1  UNL1        0.0660
     48 H           8.3769    3.6642    0.0000 H       1  UNL1        0.0660
     49 H           7.5109    3.5270    0.0000 H       1  UNL1        0.0660
     50 H           4.3161   -5.6312    0.0000 H       1  UNL1        0.0660
     51 H           5.1630   -5.4042    0.0000 H       1  UNL1        0.0660
     52 H           4.9361   -4.5573    0.0000 H       1  UNL1        0.0660
     53 H           6.7709    5.3464    0.0000 H       1  UNL1        0.0660
     54 H           5.9523    5.6606    0.0000 H       1  UNL1        0.0660
     55 H           5.6381    4.8421    0.0000 H       1  UNL1        0.0660
@<TRIPOS>BOND
     1     1     8    1
     2     1     9    1
     3     2    18    1
     4     2    24    1
     5     3    19    1
     6     3    25    1
     7     4    22    1
     8     4    26    1
     9     5    23    1
    10     5    27    1
    11     6     7    1
    12     6     9    1
    13     6    10    1
    14     6    28    1
    15     7     8    1
    16     7    11    1
    17     7    29    1
    18     8    13    1
    19     8    31    1
    20     9    12    1
    21     9    30    1
    22    10    35    1
    23    10    36    1
    24    10    37    1
    25    11    32    1
    26    11    33    1
    27    11    34    1
    28    12    14   ar
    29    12    16   ar
    30    13    15   ar
    31    13    17   ar
    32    14    18   ar
    33    14    38    1
    34    15    19   ar
    35    15    39    1
    36    16    20   ar
    37    16    40    1
    38    17    21   ar
    39    17    41    1
    40    18    22   ar
    41    19    23   ar
    42    20    22   ar
    43    20    42    1
    44    21    23   ar
    45    21    43    1
    46    24    44    1
    47    24    45    1
    48    24    46    1
    49    25    47    1
    50    25    48    1
    51    25    49    1
    52    26    50    1
    53    26    51    1
    54    26    52    1
    55    27    53    1
    56    27    54    1
    57    27    55    1
