@<TRIPOS>MOLECULE
IMPHY007038
 19 19 0 0 0
SMALL
GASTEIGER

@<TRIPOS>ATOM
      1 O           3.7320    1.4400    0.0000 O.3     1  UNL1       -0.3875
      2 C           2.8660    0.9400    0.0000 C.3     1  UNL1        0.0774
      3 C           2.8660   -0.0600    0.0000 C.ar    1  UNL1       -0.0194
      4 C           2.0000    1.4400    0.0000 C.3     1  UNL1       -0.0348
      5 C           2.0000   -0.5600    0.0000 C.ar    1  UNL1       -0.0561
      6 C           3.7320   -0.5600    0.0000 C.ar    1  UNL1       -0.0561
      7 C           2.0000   -1.5600    0.0000 C.ar    1  UNL1       -0.0614
      8 C           3.7320   -1.5600    0.0000 C.ar    1  UNL1       -0.0614
      9 C           2.8660   -2.0600    0.0000 C.ar    1  UNL1       -0.0617
     10 H           3.4030    0.6300    0.0000 H       1  UNL1        0.0641
     11 H           2.3100    1.9769    0.0000 H       1  UNL1        0.0258
     12 H           1.4631    1.7500    0.0000 H       1  UNL1        0.0258
     13 H           1.6900    0.9031    0.0000 H       1  UNL1        0.0258
     14 H           1.4631   -0.2500    0.0000 H       1  UNL1        0.0621
     15 H           4.2690   -0.2500    0.0000 H       1  UNL1        0.0621
     16 H           1.4631   -1.8700    0.0000 H       1  UNL1        0.0618
     17 H           4.2690   -1.8700    0.0000 H       1  UNL1        0.0618
     18 H           2.8660   -2.6800    0.0000 H       1  UNL1        0.0618
     19 H           3.7320    2.0600    0.0000 H       1  UNL1        0.2102
@<TRIPOS>BOND
     1     1     2    1
     2     1    19    1
     3     2     3    1
     4     2     4    1
     5     2    10    1
     6     3     5   ar
     7     3     6   ar
     8     4    11    1
     9     4    12    1
    10     4    13    1
    11     5     7   ar
    12     5    14    1
    13     6     8   ar
    14     6    15    1
    15     7     9   ar
    16     7    16    1
    17     8     9   ar
    18     8    17    1
    19     9    18    1
