@<TRIPOS>MOLECULE
IMPHY015052
 74 78 0 0 0
SMALL
GASTEIGER

@<TRIPOS>ATOM
      1 O           5.1459   -3.1913    0.0000 O.3     1  UNL1       -0.3313
      2 O           5.1396    3.8813    0.0000 O.3     1  UNL1       -0.3313
      3 O           6.8779   -3.1913    0.0000 O.3     1  UNL1       -0.4532
      4 O           5.9998    2.3780    0.0000 O.3     1  UNL1       -0.4606
      5 O           5.1459   -6.1913    0.0000 O.3     1  UNL1       -0.3864
      6 O           3.4138   -5.1913    0.0000 O.3     1  UNL1       -0.3865
      7 O           2.5357    2.3913    0.0000 O.3     1  UNL1       -0.3864
      8 O           2.5434    4.3913    0.0000 O.3     1  UNL1       -0.3865
      9 O           6.8779   -5.1913    0.0000 O.3     1  UNL1       -0.3829
     10 O           4.2639    1.3847    0.0000 O.3     1  UNL1       -0.3829
     11 O           2.5478   -3.6913    0.0000 O.3     1  UNL1       -0.3924
     12 O           5.1473    5.8813    0.0000 O.3     1  UNL1       -0.3924
     13 O           7.7440   -0.6913    0.0000 O.2     1  UNL1       -0.4507
     14 O           5.1459   -2.1913    0.0000 O.2     1  UNL1       -0.2830
     15 O           4.2417   -0.6944    0.0000 O.3     1  UNL1       -0.5058
     16 O          11.2081   -1.6913    0.0000 O.3     1  UNL1       -0.5033
     17 O          11.2081   -3.6913    0.0000 O.3     1  UNL1       -0.5033
     18 C           5.1459   -5.1913    0.0000 C.3     1  UNL1        0.1152
     19 C           4.2799   -4.6913    0.0000 C.3     1  UNL1        0.1120
     20 C           3.4037    2.8880    0.0000 C.3     1  UNL1        0.1152
     21 C           3.4075    3.8880    0.0000 C.3     1  UNL1        0.1120
     22 C           6.0119   -4.6913    0.0000 C.3     1  UNL1        0.1454
     23 C           4.2799   -3.6913    0.0000 C.3     1  UNL1        0.1140
     24 C           4.2678    2.3846    0.0000 C.3     1  UNL1        0.1454
     25 C           4.2755    4.3846    0.0000 C.3     1  UNL1        0.1140
     26 C           6.0119   -3.6913    0.0000 C.3     1  UNL1        0.2311
     27 C           5.1357    2.8813    0.0000 C.3     1  UNL1        0.2308
     28 C           3.4138   -3.1913    0.0000 C.3     1  UNL1        0.0731
     29 C           4.2793    5.3846    0.0000 C.3     1  UNL1        0.0731
     30 C           6.8779   -2.1913    0.0000 C.ar    1  UNL1        0.2138
     31 C           5.9960    1.3780    0.0000 C.ar    1  UNL1        0.1310
     32 C           6.0119   -0.6913    0.0000 C.ar    1  UNL1        0.1092
     33 C           6.0119   -1.6913    0.0000 C.ar    1  UNL1        0.2382
     34 C           7.7440   -1.6913    0.0000 C.ar    1  UNL1        0.1810
     35 C           6.8779   -0.1913    0.0000 C.ar    1  UNL1        0.1465
     36 C           6.8940    0.8502    0.0000 C.ar    1  UNL1        0.0235
     37 C           5.0939    0.8572    0.0000 C.ar    1  UNL1        0.0226
     38 C           5.1019   -0.1844    0.0000 C.ar    1  UNL1        0.1348
     39 C           8.6100   -2.1913    0.0000 C.ar    1  UNL1        0.0247
     40 C           9.4760   -1.6913    0.0000 C.ar    1  UNL1       -0.0057
     41 C           8.6100   -3.1913    0.0000 C.ar    1  UNL1       -0.0473
     42 C          10.3420   -2.1913    0.0000 C.ar    1  UNL1        0.1589
     43 C           9.4760   -3.6913    0.0000 C.ar    1  UNL1       -0.0159
     44 C          10.3420   -3.1913    0.0000 C.ar    1  UNL1        0.1583
     45 H           4.6090   -5.5013    0.0000 H       1  UNL1        0.0648
     46 H           3.7429   -4.3813    0.0000 H       1  UNL1        0.0647
     47 H           2.8680    3.2000    0.0000 H       1  UNL1        0.0648
     48 H           2.8694    3.5800    0.0000 H       1  UNL1        0.0647
     49 H           6.0119   -5.3113    0.0000 H       1  UNL1        0.0683
     50 H           4.2799   -3.0713    0.0000 H       1  UNL1        0.0647
     51 H           3.7296    2.0767    0.0000 H       1  UNL1        0.0683
     52 H           4.8136    4.6926    0.0000 H       1  UNL1        0.0647
     53 H           6.0119   -3.0713    0.0000 H       1  UNL1        0.1084
     54 H           5.1333    2.2613    0.0000 H       1  UNL1        0.1084
     55 H           3.8124   -2.7163    0.0000 H       1  UNL1        0.0584
     56 H           3.0153   -2.7163    0.0000 H       1  UNL1        0.0584
     57 H           4.0695    5.9680    0.0000 H       1  UNL1        0.0584
     58 H           3.6684    5.2793    0.0000 H       1  UNL1        0.0584
     59 H           4.6090   -6.5013    0.0000 H       1  UNL1        0.2100
     60 H           3.4138   -5.8113    0.0000 H       1  UNL1        0.2100
     61 H           2.0000    2.7034    0.0000 H       1  UNL1        0.2100
     62 H           2.5458    5.0113    0.0000 H       1  UNL1        0.2100
     63 H           6.8779   -5.8113    0.0000 H       1  UNL1        0.2102
     64 H           3.7258    1.0767    0.0000 H       1  UNL1        0.2102
     65 H           7.4345    1.1540    0.0000 H       1  UNL1        0.0691
     66 H           2.0109   -3.3813    0.0000 H       1  UNL1        0.2095
     67 H           5.1497    6.5013    0.0000 H       1  UNL1        0.2095
     68 H           4.5558    1.1651    0.0000 H       1  UNL1        0.0691
     69 H           9.4760   -1.0713    0.0000 H       1  UNL1        0.0662
     70 H           8.0730   -3.5013    0.0000 H       1  UNL1        0.0626
     71 H           3.7012   -0.3906    0.0000 H       1  UNL1        0.2922
     72 H           9.4760   -4.3113    0.0000 H       1  UNL1        0.0655
     73 H          11.2081   -1.0713    0.0000 H       1  UNL1        0.2923
     74 H          11.2081   -4.3113    0.0000 H       1  UNL1        0.2923
@<TRIPOS>BOND
     1     1    23    1
     2     1    26    1
     3     2    25    1
     4     2    27    1
     5     3    26    1
     6     3    30    1
     7     4    27    1
     8     4    31    1
     9    18     5    1
    10     5    59    1
    11    19     6    1
    12     6    60    1
    13    20     7    1
    14     7    61    1
    15    21     8    1
    16     8    62    1
    17    22     9    1
    18     9    63    1
    19    24    10    1
    20    10    64    1
    21    11    28    1
    22    11    66    1
    23    12    29    1
    24    12    67    1
    25    13    34   ar
    26    13    35   ar
    27    14    33    2
    28    15    38    1
    29    15    71    1
    30    16    42    1
    31    16    73    1
    32    17    44    1
    33    17    74    1
    34    18    19    1
    35    18    22    1
    36    18    45    1
    37    19    23    1
    38    19    46    1
    39    20    21    1
    40    20    24    1
    41    20    47    1
    42    21    25    1
    43    21    48    1
    44    22    26    1
    45    22    49    1
    46    23    28    1
    47    23    50    1
    48    24    27    1
    49    24    51    1
    50    25    29    1
    51    25    52    1
    52    26    53    1
    53    27    54    1
    54    28    55    1
    55    28    56    1
    56    29    57    1
    57    29    58    1
    58    30    33   ar
    59    30    34   ar
    60    31    36   ar
    61    31    37   ar
    62    32    33   ar
    63    32    35   ar
    64    32    38   ar
    65    34    39    1
    66    35    36   ar
    67    36    65    1
    68    37    38   ar
    69    37    68    1
    70    39    40   ar
    71    39    41   ar
    72    40    42   ar
    73    40    69    1
    74    41    43   ar
    75    41    70    1
    76    42    44   ar
    77    43    44   ar
    78    43    72    1
