@<TRIPOS>MOLECULE
IMPHY014832
 41 43 0 0 0
SMALL
GASTEIGER

@<TRIPOS>ATOM
      1 O           9.8622   -1.3623    0.0000 O.3     1  UNL1       -0.3902
      2 O           7.2641    1.1377    0.0000 O.2     1  UNL1       -0.2955
      3 O           4.6660   -1.3623    0.0000 O.2     1  UNL1       -0.2669
      4 N           8.9962    1.1377    0.0000 N.3     1  UNL1       -0.3105
      5 N           5.5321    0.1377    0.0000 N.ar    1  UNL1       -0.2915
      6 N           4.6660    1.6377    0.0000 N.ar    1  UNL1       -0.2369
      7 C           8.9962    0.1377    0.0000 C.3     1  UNL1        0.0404
      8 C           9.8622   -0.3623    0.0000 C.3     1  UNL1        0.0710
      9 C          10.7282    0.1377    0.0000 C.3     1  UNL1       -0.0242
     10 C          10.7282    1.1377    0.0000 C.3     1  UNL1       -0.0380
     11 C           9.8622    1.6377    0.0000 C.3     1  UNL1       -0.0037
     12 C           8.1301   -0.3623    0.0000 C.3     1  UNL1        0.0254
     13 C           7.2641    0.1377    0.0000 C.2     1  UNL1        0.1545
     14 C           6.3981   -0.3623    0.0000 C.3     1  UNL1        0.0858
     15 C           4.6660   -0.3623    0.0000 C.ar    1  UNL1        0.2620
     16 C           5.5321    1.1377    0.0000 C.ar    1  UNL1        0.0996
     17 C           3.8000    0.1377    0.0000 C.ar    1  UNL1        0.0649
     18 C           3.8000    1.1377    0.0000 C.ar    1  UNL1        0.0778
     19 C           2.9061   -0.3970    0.0000 C.ar    1  UNL1       -0.0474
     20 C           2.9061    1.6723    0.0000 C.ar    1  UNL1       -0.0355
     21 C           2.0000    0.1169    0.0000 C.ar    1  UNL1       -0.0609
     22 C           2.0000    1.1585    0.0000 C.ar    1  UNL1       -0.0597
     23 H           8.4592    0.4477    0.0000 H       1  UNL1        0.0490
     24 H           9.3252   -0.6723    0.0000 H       1  UNL1        0.0609
     25 H          10.9403   -0.4449    0.0000 H       1  UNL1        0.0291
     26 H          11.3388    0.2453    0.0000 H       1  UNL1        0.0291
     27 H          11.3388    1.0300    0.0000 H       1  UNL1        0.0278
     28 H          10.9403    1.7203    0.0000 H       1  UNL1        0.0278
     29 H          10.2607    2.1126    0.0000 H       1  UNL1        0.0424
     30 H           9.4637    2.1126    0.0000 H       1  UNL1        0.0424
     31 H           8.4592    1.4477    0.0000 H       1  UNL1        0.1223
     32 H           7.7316   -0.8373    0.0000 H       1  UNL1        0.0358
     33 H           8.5287   -0.8373    0.0000 H       1  UNL1        0.0358
     34 H          10.3991   -1.6723    0.0000 H       1  UNL1        0.2098
     35 H           5.9996   -0.8373    0.0000 H       1  UNL1        0.0572
     36 H           6.7966   -0.8373    0.0000 H       1  UNL1        0.0572
     37 H           6.0690    1.4477    0.0000 H       1  UNL1        0.1030
     38 H           2.9132   -1.0170    0.0000 H       1  UNL1        0.0626
     39 H           2.9132    2.2923    0.0000 H       1  UNL1        0.0639
     40 H           1.4643   -0.1952    0.0000 H       1  UNL1        0.0618
     41 H           1.4643    1.4706    0.0000 H       1  UNL1        0.0618
@<TRIPOS>BOND
     1     8     1    1
     2     1    34    1
     3     2    13    2
     4     3    15    2
     5     4     7    1
     6     4    11    1
     7     4    31    1
     8     5    14    1
     9     5    15   ar
    10     5    16   ar
    11     6    16   ar
    12     6    18   ar
    13     7     8    1
    14     7    12    1
    15     7    23    1
    16     8     9    1
    17     8    24    1
    18     9    10    1
    19     9    25    1
    20     9    26    1
    21    10    11    1
    22    10    27    1
    23    10    28    1
    24    11    29    1
    25    11    30    1
    26    12    13    1
    27    12    32    1
    28    12    33    1
    29    13    14    1
    30    14    35    1
    31    14    36    1
    32    15    17   ar
    33    16    37    1
    34    17    18   ar
    35    17    19   ar
    36    18    20   ar
    37    19    21   ar
    38    19    38    1
    39    20    22   ar
    40    20    39    1
    41    21    22   ar
    42    21    40    1
    43    22    41    1
