@<TRIPOS>MOLECULE
IMPHY012718
 41 42 0 0 0
SMALL
GASTEIGER

@<TRIPOS>ATOM
      1 O           4.2690   -0.5950    0.0000 O.3     1  UNL1       -0.3405
      2 O           6.0010   -0.5950    0.0000 O.3     1  UNL1       -0.3446
      3 O           4.2690   -3.5950    0.0000 O.3     1  UNL1       -0.3864
      4 O           2.5369   -2.5950    0.0000 O.3     1  UNL1       -0.3865
      5 O           6.0010   -2.5950    0.0000 O.3     1  UNL1       -0.3841
      6 O           2.5369    0.4050    0.0000 O.3     1  UNL1       -0.3924
      7 C           4.2690   -2.5950    0.0000 C.3     1  UNL1        0.1141
      8 C           3.4030   -2.0950    0.0000 C.3     1  UNL1        0.1119
      9 C           5.1350   -2.0950    0.0000 C.3     1  UNL1        0.1341
     10 C           3.4030   -1.0950    0.0000 C.3     1  UNL1        0.1130
     11 C           5.1350   -1.0950    0.0000 C.3     1  UNL1        0.1882
     12 C           2.5369   -0.5950    0.0000 C.3     1  UNL1        0.0730
     13 C           6.0010    0.4050    0.0000 C.3     1  UNL1        0.0693
     14 C           6.8671    0.9050    0.0000 C.2     1  UNL1       -0.0580
     15 C           6.8671    1.9050    0.0000 C.2     1  UNL1       -0.0564
     16 C           7.7331    2.4050    0.0000 C.ar    1  UNL1       -0.0253
     17 C           8.5991    1.9050    0.0000 C.ar    1  UNL1       -0.0546
     18 C           7.7331    3.4050    0.0000 C.ar    1  UNL1       -0.0546
     19 C           9.4651    2.4050    0.0000 C.ar    1  UNL1       -0.0612
     20 C           8.5991    3.9050    0.0000 C.ar    1  UNL1       -0.0612
     21 C           9.4651    3.4050    0.0000 C.ar    1  UNL1       -0.0617
     22 H           3.7320   -2.9050    0.0000 H       1  UNL1        0.0648
     23 H           3.4030   -2.7150    0.0000 H       1  UNL1        0.0647
     24 H           5.1350   -2.7150    0.0000 H       1  UNL1        0.0671
     25 H           3.4030   -0.4750    0.0000 H       1  UNL1        0.0647
     26 H           5.1350   -0.4750    0.0000 H       1  UNL1        0.0938
     27 H           1.9264   -0.4873    0.0000 H       1  UNL1        0.0584
     28 H           2.3249   -1.1776    0.0000 H       1  UNL1        0.0584
     29 H           3.7320   -3.9050    0.0000 H       1  UNL1        0.2100
     30 H           2.0000   -2.2850    0.0000 H       1  UNL1        0.2100
     31 H           6.5380   -2.2850    0.0000 H       1  UNL1        0.2101
     32 H           5.7890    0.9876    0.0000 H       1  UNL1        0.0605
     33 H           5.3905    0.2973    0.0000 H       1  UNL1        0.0605
     34 H           2.0000    0.7150    0.0000 H       1  UNL1        0.2095
     35 H           7.4040    0.5950    0.0000 H       1  UNL1        0.0595
     36 H           6.3301    2.2150    0.0000 H       1  UNL1        0.0621
     37 H           8.5991    1.2850    0.0000 H       1  UNL1        0.0623
     38 H           7.1962    3.7150    0.0000 H       1  UNL1        0.0623
     39 H          10.0021    2.0950    0.0000 H       1  UNL1        0.0618
     40 H           8.5991    4.5250    0.0000 H       1  UNL1        0.0618
     41 H          10.0021    3.7150    0.0000 H       1  UNL1        0.0618
@<TRIPOS>BOND
     1     1    10    1
     2     1    11    1
     3    11     2    1
     4     2    13    1
     5     7     3    1
     6     3    29    1
     7     8     4    1
     8     4    30    1
     9     9     5    1
    10     5    31    1
    11     6    12    1
    12     6    34    1
    13     7     8    1
    14     7     9    1
    15     7    22    1
    16     8    10    1
    17     8    23    1
    18     9    11    1
    19     9    24    1
    20    10    12    1
    21    10    25    1
    22    11    26    1
    23    12    27    1
    24    12    28    1
    25    13    14    1
    26    13    32    1
    27    13    33    1
    28    14    15    2
    29    14    35    1
    30    15    16    1
    31    15    36    1
    32    16    17   ar
    33    16    18   ar
    34    17    19   ar
    35    17    37    1
    36    18    20   ar
    37    18    38    1
    38    19    21   ar
    39    19    39    1
    40    20    21   ar
    41    20    40    1
    42    21    41    1
