@<TRIPOS>MOLECULE
IMPHY006001
 87 91 0 0 0
SMALL
GASTEIGER

@<TRIPOS>ATOM
      1 O           5.6690   -2.3845    0.0000 O.3     1  UNL1       -0.3635
      2 O           4.4206   -2.5531    0.0000 O.3     1  UNL1       -0.4607
      3 O           7.9011   -1.5185    0.0000 O.3     1  UNL1       -0.4529
      4 O           2.9258    1.5039    0.0000 O.3     1  UNL1       -0.3372
      5 O           7.9011    0.4815    0.0000 O.3     1  UNL1       -0.3880
      6 O           6.1690   -2.5185    0.0000 O.3     1  UNL1       -0.4640
      7 O           2.0000    3.1600    0.0000 O.2     1  UNL1       -0.4708
      8 O           8.7671   -0.0185    0.0000 O.2     1  UNL1       -0.2463
      9 O           2.6887   -2.5731    0.0000 O.2     1  UNL1       -0.2512
     10 O           5.3030   -4.0185    0.0000 O.2     1  UNL1       -0.2512
     11 O          10.4991   -2.0185    0.0000 O.3     1  UNL1       -0.4471
     12 O           9.6331   -3.5185    0.0000 O.2     1  UNL1       -0.2511
     13 C           5.3030   -1.0185    0.0000 C.3     1  UNL1        0.0798
     14 C           5.3030   -0.0185    0.0000 C.3     1  UNL1       -0.0155
     15 C           6.1690   -1.5185    0.0000 C.3     1  UNL1        0.1441
     16 C           4.4090    0.5162    0.0000 C.3     1  UNL1        0.0007
     17 C           4.4090   -1.5532    0.0000 C.3     1  UNL1        0.1151
     18 C           7.0350   -1.0185    0.0000 C.3     1  UNL1        0.1605
     19 C           3.5030    0.0023    0.0000 C.3     1  UNL1       -0.0325
     20 C           6.1690    0.4815    0.0000 C.3     1  UNL1       -0.0190
     21 C           6.6690   -2.3845    0.0000 C.3     1  UNL1        0.0820
     22 C           3.5030   -1.0393    0.0000 C.3     1  UNL1       -0.0117
     23 C           7.0350   -0.0185    0.0000 C.3     1  UNL1        0.0952
     24 C           3.9191    1.3879    0.0000 C.3     1  UNL1        0.0693
     25 C           5.3030   -2.0185    0.0000 C.3     1  UNL1        0.1046
     26 C           4.9190    1.3763    0.0000 C.3     1  UNL1       -0.0567
     27 C           4.3364    2.2967    0.0000 C.3     1  UNL1       -0.0138
     28 C           2.6389    0.5056    0.0000 C.3     1  UNL1       -0.0617
     29 C           3.6010    2.9744    0.0000 C.3     1  UNL1        0.0451
     30 C           2.7292    2.4844    0.0000 C.3     1  UNL1        0.2075
     31 C           3.4030    3.9485    0.0000 C.2     1  UNL1       -0.0405
     32 C           8.7671   -1.0185    0.0000 C.2     1  UNL1        0.3517
     33 C           3.5604   -3.0631    0.0000 C.2     1  UNL1        0.3042
     34 C           6.1690   -3.5185    0.0000 C.2     1  UNL1        0.3040
     35 C           2.4156    4.0630    0.0000 C.2     1  UNL1        0.0844
     36 C           9.6331   -1.5185    0.0000 C.3     1  UNL1        0.2059
     37 C           3.5720   -4.0630    0.0000 C.3     1  UNL1        0.0332
     38 C           7.0350   -4.0185    0.0000 C.3     1  UNL1        0.0332
     39 C          10.1331   -0.6525    0.0000 C.3     1  UNL1       -0.0053
     40 C           9.1331   -2.3845    0.0000 C.3     1  UNL1       -0.0142
     41 C          11.1331   -0.6525    0.0000 C.3     1  UNL1       -0.0611
     42 C          10.4991   -3.0185    0.0000 C.2     1  UNL1        0.3050
     43 C          11.3652   -3.5185    0.0000 C.3     1  UNL1        0.0333
     44 H           5.3095    0.8315    0.0000 H       1  UNL1        0.0316
     45 H           3.8751   -1.8683    0.0000 H       1  UNL1        0.0742
     46 H           7.0350   -1.6385    0.0000 H       1  UNL1        0.0790
     47 H           3.5066    0.6223    0.0000 H       1  UNL1        0.0305
     48 H           6.5675    0.9564    0.0000 H       1  UNL1        0.0294
     49 H           5.7705    0.9564    0.0000 H       1  UNL1        0.0294
     50 H           6.7767   -2.9951    0.0000 H       1  UNL1        0.0590
     51 H           7.2516   -2.1725    0.0000 H       1  UNL1        0.0590
     52 H           2.8921   -0.9332    0.0000 H       1  UNL1        0.0304
     53 H           3.2939   -1.6230    0.0000 H       1  UNL1        0.0304
     54 H           7.0350    0.6015    0.0000 H       1  UNL1        0.0631
     55 H           3.4479    0.6804    0.0000 H       1  UNL1        0.0603
     56 H           4.6924   -1.9108    0.0000 H       1  UNL1        0.0705
     57 H           5.0909   -2.6011    0.0000 H       1  UNL1        0.0705
     58 H           5.4523    1.0602    0.0000 H       1  UNL1        0.0236
     59 H           5.2352    1.9097    0.0000 H       1  UNL1        0.0236
     60 H           4.3857    1.6925    0.0000 H       1  UNL1        0.0236
     61 H           4.8697    1.9805    0.0000 H       1  UNL1        0.0298
     62 H           4.7066    2.7940    0.0000 H       1  UNL1        0.0298
     63 H           2.9510    1.0414    0.0000 H       1  UNL1        0.0233
     64 H           2.1031    0.8177    0.0000 H       1  UNL1        0.0233
     65 H           2.3268   -0.0301    0.0000 H       1  UNL1        0.0233
     66 H           4.3414    3.3918    0.0000 H       1  UNL1        0.0405
     67 H           1.9877    2.0689    0.0000 H       1  UNL1        0.1061
     68 H           7.9011    1.1015    0.0000 H       1  UNL1        0.2099
     69 H           3.8224    4.4052    0.0000 H       1  UNL1        0.0607
     70 H           2.1118    4.6035    0.0000 H       1  UNL1        0.1021
     71 H           2.9520   -4.0702    0.0000 H       1  UNL1        0.0342
     72 H           3.5792   -4.6830    0.0000 H       1  UNL1        0.0342
     73 H           4.1919   -4.0559    0.0000 H       1  UNL1        0.0342
     74 H           6.7250   -4.5554    0.0000 H       1  UNL1        0.0342
     75 H           7.5720   -4.3285    0.0000 H       1  UNL1        0.0342
     76 H           7.3450   -3.4816    0.0000 H       1  UNL1        0.0342
     77 H          10.2408   -0.0419    0.0000 H       1  UNL1        0.0306
     78 H           9.5505   -0.4404    0.0000 H       1  UNL1        0.0306
     79 H           8.5962   -2.0745    0.0000 H       1  UNL1        0.0274
     80 H           8.8231   -2.9215    0.0000 H       1  UNL1        0.0274
     81 H           9.6700   -2.6945    0.0000 H       1  UNL1        0.0274
     82 H          11.1331   -1.2725    0.0000 H       1  UNL1        0.0231
     83 H          11.7531   -0.6525    0.0000 H       1  UNL1        0.0231
     84 H          11.1331   -0.0325    0.0000 H       1  UNL1        0.0231
     85 H          11.0552   -4.0554    0.0000 H       1  UNL1        0.0342
     86 H          11.9021   -3.8285    0.0000 H       1  UNL1        0.0342
     87 H          11.6752   -2.9816    0.0000 H       1  UNL1        0.0342
@<TRIPOS>BOND
     1    15     1    1
     2     1    21    1
     3    17     2    1
     4     2    33    1
     5    18     3    1
     6     3    32    1
     7     4    24    1
     8     4    30    1
     9    23     5    1
    10     5    68    1
    11     6    25    1
    12     6    34    1
    13     7    30    1
    14     7    35    1
    15     8    32    2
    16     9    33    2
    17    10    34    2
    18    36    11    1
    19    11    42    1
    20    12    42    2
    21    13    14    1
    22    13    15    1
    23    13    17    1
    24    13    25    1
    25    14    16    1
    26    14    20    1
    27    14    44    1
    28    15    18    1
    29    15    21    1
    30    16    19    1
    31    16    24    1
    32    16    26    1
    33    17    22    1
    34    17    45    1
    35    18    23    1
    36    18    46    1
    37    19    22    1
    38    19    28    1
    39    19    47    1
    40    20    23    1
    41    20    48    1
    42    20    49    1
    43    21    50    1
    44    21    51    1
    45    22    52    1
    46    22    53    1
    47    23    54    1
    48    24    27    1
    49    24    55    1
    50    25    56    1
    51    25    57    1
    52    26    58    1
    53    26    59    1
    54    26    60    1
    55    27    29    1
    56    27    61    1
    57    27    62    1
    58    28    63    1
    59    28    64    1
    60    28    65    1
    61    29    30    1
    62    29    31    1
    63    29    66    1
    64    30    67    1
    65    31    35    2
    66    31    69    1
    67    32    36    1
    68    33    37    1
    69    34    38    1
    70    35    70    1
    71    36    39    1
    72    36    40    1
    73    37    71    1
    74    37    72    1
    75    37    73    1
    76    38    74    1
    77    38    75    1
    78    38    76    1
    79    39    41    1
    80    39    77    1
    81    39    78    1
    82    40    79    1
    83    40    80    1
    84    40    81    1
    85    41    82    1
    86    41    83    1
    87    41    84    1
    88    42    43    1
    89    43    85    1
    90    43    86    1
    91    43    87    1
