@<TRIPOS>MOLECULE
IMPHY009458
 39 42 0 0 0
SMALL
GASTEIGER

@<TRIPOS>ATOM
      1 O           7.5101    0.2840    0.0000 O.2     1  UNL1       -0.4919
      2 O           4.9715    0.7841    0.0000 O.3     1  UNL1       -0.3752
      3 O           6.2035    2.5906    0.0000 O.3     1  UNL1       -0.3822
      4 O           3.0189   -2.1436    0.0000 O.3     1  UNL1       -0.5033
      5 O           2.2351   -0.2512    0.0000 O.3     1  UNL1       -0.5033
      6 O           8.6312   -2.9006    0.0000 O.2     1  UNL1       -0.2878
      7 C           6.2035   -1.0225    0.0000 C.3     1  UNL1        0.1006
      8 C           6.2035    1.5906    0.0000 C.3     1  UNL1        0.1311
      9 C           5.8375    0.2840    0.0000 C.3     1  UNL1        0.1103
     10 C           5.2796    1.2079    0.0000 C.3     1  UNL1        0.0074
     11 C           5.2796   -0.6399    0.0000 C.ar    1  UNL1       -0.0207
     12 C           7.1274    1.2079    0.0000 C.3     1  UNL1        0.1206
     13 C           4.8970    0.2840    0.0000 C.ar    1  UNL1       -0.0363
     14 C           7.1274   -0.6399    0.0000 C.2     1  UNL1        0.1182
     15 C           6.0516   -2.0530    0.0000 C.2     1  UNL1       -0.0602
     16 C           4.6583   -1.4759    0.0000 C.ar    1  UNL1       -0.0118
     17 C           7.9634   -1.2612    0.0000 C.2     1  UNL1        0.0238
     18 C           3.8664    0.4359    0.0000 C.ar    1  UNL1       -0.0130
     19 C           6.8731   -2.6935    0.0000 C.2     1  UNL1       -0.0174
     20 C           7.8354   -2.2949    0.0000 C.2     1  UNL1        0.1819
     21 C           3.6246   -1.3479    0.0000 C.ar    1  UNL1        0.1585
     22 C           3.2260   -0.3856    0.0000 C.ar    1  UNL1        0.1585
     23 C           4.9715    1.7840    0.0000 C.3     1  UNL1        0.0370
     24 H           5.3477   -0.0962    0.0000 H       1  UNL1        0.0642
     25 H           5.1987    1.8226    0.0000 H       1  UNL1        0.0343
     26 H           4.6649    1.2888    0.0000 H       1  UNL1        0.0343
     27 H           7.7421    1.2888    0.0000 H       1  UNL1        0.0726
     28 H           7.2083    1.8226    0.0000 H       1  UNL1        0.0726
     29 H           5.4761   -2.2837    0.0000 H       1  UNL1        0.0587
     30 H           4.9022   -2.0459    0.0000 H       1  UNL1        0.0658
     31 H           6.7404    2.9006    0.0000 H       1  UNL1        0.2104
     32 H           8.5335   -1.0173    0.0000 H       1  UNL1        0.0689
     33 H           3.6358    1.0114    0.0000 H       1  UNL1        0.0658
     34 H           6.7898   -3.3079    0.0000 H       1  UNL1        0.0653
     35 H           5.5915    1.7840    0.0000 H       1  UNL1        0.0524
     36 H           4.9714    2.4040    0.0000 H       1  UNL1        0.0524
     37 H           4.3515    1.7840    0.0000 H       1  UNL1        0.0524
     38 H           2.4039   -2.0651    0.0000 H       1  UNL1        0.2923
     39 H           2.0000    0.3225    0.0000 H       1  UNL1        0.2923
@<TRIPOS>BOND
     1     1    12    1
     2     1    14    1
     3     2     9    1
     4     2    23    1
     5     3     8    1
     6     3    31    1
     7     4    21    1
     8     4    38    1
     9     5    22    1
    10     5    39    1
    11     6    20    2
    12     7     9    1
    13     7    11    1
    14     7    14    1
    15     7    15    1
    16     8     9    1
    17     8    10    1
    18     8    12    1
    19     9    24    1
    20    10    13    1
    21    10    25    1
    22    10    26    1
    23    11    13   ar
    24    11    16   ar
    25    12    27    1
    26    12    28    1
    27    13    18   ar
    28    14    17    2
    29    15    19    2
    30    15    29    1
    31    16    21   ar
    32    16    30    1
    33    17    20    1
    34    17    32    1
    35    18    22   ar
    36    18    33    1
    37    19    20    1
    38    19    34    1
    39    21    22   ar
    40    23    35    1
    41    23    36    1
    42    23    37    1
