@<TRIPOS>MOLECULE
IMPHY003009
 57 59 0 0 0
SMALL
GASTEIGER

@<TRIPOS>ATOM
      1 O           6.0812    1.0714    0.0000 O.3     1  UNL1       -0.4512
      2 O          10.6648    0.1440    0.0000 O.3     1  UNL1       -0.5031
      3 O           9.6648   -1.5880    0.0000 O.3     1  UNL1       -0.5031
      4 O           6.3919    3.6313    0.0000 O.2     1  UNL1       -0.2831
      5 O           4.2690    3.8761    0.0000 O.3     1  UNL1       -0.5058
      6 O           2.5369    0.8761    0.0000 O.3     1  UNL1       -0.5065
      7 C           9.1648    1.0101    0.0000 C.ar    1  UNL1        0.0087
      8 C           8.1648    1.0101    0.0000 C.ar    1  UNL1       -0.0140
      9 C           8.1648   -0.7220    0.0000 C.ar    1  UNL1        0.0020
     10 C           9.6648    1.8761    0.0000 C.3     1  UNL1       -0.0051
     11 C           7.6648    0.1440    0.0000 C.ar    1  UNL1       -0.0470
     12 C           9.6648    0.1440    0.0000 C.ar    1  UNL1        0.1626
     13 C           9.1648   -0.7220    0.0000 C.ar    1  UNL1        0.1621
     14 C           7.6648   -1.5880    0.0000 C.3     1  UNL1       -0.0057
     15 C           7.6648    1.8761    0.0000 C.2     1  UNL1       -0.0079
     16 C           6.6648    1.8761    0.0000 C.2     1  UNL1        0.1763
     17 C           5.1350    2.3761    0.0000 C.ar    1  UNL1        0.1091
     18 C          10.6648    1.8761    0.0000 C.2     1  UNL1       -0.0808
     19 C           6.0812    2.6808    0.0000 C.2     1  UNL1        0.2350
     20 C           5.1350    1.3761    0.0000 C.ar    1  UNL1        0.1465
     21 C           8.1648   -2.4540    0.0000 C.2     1  UNL1       -0.0809
     22 C          11.1648    2.7421    0.0000 C.2     1  UNL1       -0.0793
     23 C           4.2690    2.8761    0.0000 C.ar    1  UNL1        0.1348
     24 C           4.2690    0.8761    0.0000 C.ar    1  UNL1        0.0231
     25 C           7.6648   -3.3201    0.0000 C.2     1  UNL1       -0.0793
     26 C           3.4030    2.3761    0.0000 C.ar    1  UNL1        0.0223
     27 C           3.4030    1.3761    0.0000 C.ar    1  UNL1        0.1239
     28 C          12.1648    2.7421    0.0000 C.3     1  UNL1       -0.0440
     29 C          10.6648    3.6081    0.0000 C.3     1  UNL1       -0.0440
     30 C           8.1648   -4.1861    0.0000 C.3     1  UNL1       -0.0440
     31 C           6.6648   -3.3201    0.0000 C.3     1  UNL1       -0.0440
     32 H           9.7725    2.4867    0.0000 H       1  UNL1        0.0357
     33 H           9.0822    2.0881    0.0000 H       1  UNL1        0.0357
     34 H           7.0448    0.1440    0.0000 H       1  UNL1        0.0628
     35 H           7.1899   -1.1895    0.0000 H       1  UNL1        0.0357
     36 H           7.1899   -1.9865    0.0000 H       1  UNL1        0.0357
     37 H           7.9748    2.4130    0.0000 H       1  UNL1        0.0661
     38 H          10.9748    1.3392    0.0000 H       1  UNL1        0.0575
     39 H           8.7848   -2.4540    0.0000 H       1  UNL1        0.0575
     40 H           4.2690    0.2561    0.0000 H       1  UNL1        0.0691
     41 H          10.9748   -0.3929    0.0000 H       1  UNL1        0.2923
     42 H           2.8660    2.6861    0.0000 H       1  UNL1        0.0691
     43 H          10.2848   -1.5880    0.0000 H       1  UNL1        0.2923
     44 H          12.1648    2.1221    0.0000 H       1  UNL1        0.0274
     45 H          12.7848    2.7421    0.0000 H       1  UNL1        0.0274
     46 H          12.1648    3.3621    0.0000 H       1  UNL1        0.0274
     47 H          11.2018    3.9181    0.0000 H       1  UNL1        0.0274
     48 H          10.3548    4.1451    0.0000 H       1  UNL1        0.0274
     49 H          10.1279    3.2981    0.0000 H       1  UNL1        0.0274
     50 H           7.6279   -4.4961    0.0000 H       1  UNL1        0.0274
     51 H           6.6648   -2.7001    0.0000 H       1  UNL1        0.0274
     52 H           6.0448   -3.3201    0.0000 H       1  UNL1        0.0274
     53 H           6.6648   -3.9401    0.0000 H       1  UNL1        0.0274
     54 H           8.4748   -4.7230    0.0000 H       1  UNL1        0.0274
     55 H           8.7018   -3.8761    0.0000 H       1  UNL1        0.0274
     56 H           3.7320    4.1861    0.0000 H       1  UNL1        0.2922
     57 H           2.0000    1.1861    0.0000 H       1  UNL1        0.2921
@<TRIPOS>BOND
     1     1    16    1
     2     1    20    1
     3     2    12    1
     4     2    41    1
     5     3    13    1
     6     3    43    1
     7     4    19    2
     8     5    23    1
     9     5    56    1
    10     6    27    1
    11     6    57    1
    12     7     8   ar
    13     7    10    1
    14     7    12   ar
    15     8    11   ar
    16     8    15    1
    17     9    11   ar
    18     9    13   ar
    19     9    14    1
    20    10    18    1
    21    10    32    1
    22    10    33    1
    23    11    34    1
    24    12    13   ar
    25    14    21    1
    26    14    35    1
    27    14    36    1
    28    15    16    2
    29    15    37    1
    30    16    19    1
    31    17    19    1
    32    17    20   ar
    33    17    23   ar
    34    18    22    2
    35    18    38    1
    36    20    24   ar
    37    21    25    2
    38    21    39    1
    39    22    28    1
    40    22    29    1
    41    23    26   ar
    42    24    27   ar
    43    24    40    1
    44    25    30    1
    45    25    31    1
    46    26    27   ar
    47    26    42    1
    48    28    44    1
    49    28    45    1
    50    28    46    1
    51    29    47    1
    52    29    48    1
    53    29    49    1
    54    30    50    1
    55    30    54    1
    56    30    55    1
    57    31    51    1
    58    31    52    1
    59    31    53    1
