@<TRIPOS>MOLECULE
IMPHY013348
 27 28 0 0 0
SMALL
GASTEIGER

@<TRIPOS>ATOM
      1 O           6.3580   -0.5947    0.0000 O.2     1  UNL1       -0.4213
      2 O           2.8660   -0.5600    0.0000 O.3     1  UNL1       -0.4906
      3 O           2.8660    1.4400    0.0000 O.3     1  UNL1       -0.5033
      4 O           5.4641   -2.0600    0.0000 O.2     1  UNL1       -0.2921
      5 O           8.1282   -0.5841    0.0000 O.2     1  UNL1       -0.2452
      6 C           4.5981   -0.5600    0.0000 C.ar    1  UNL1        0.1051
      7 C           5.4641   -0.0600    0.0000 C.ar    1  UNL1        0.1533
      8 C           5.4641    0.9400    0.0000 C.ar    1  UNL1        0.0220
      9 C           3.7320   -0.0600    0.0000 C.ar    1  UNL1        0.1753
     10 C           4.5981    1.4400    0.0000 C.ar    1  UNL1       -0.0058
     11 C           3.7320    0.9400    0.0000 C.ar    1  UNL1        0.1600
     12 C           6.3580    1.4747    0.0000 C.ar    1  UNL1       -0.0442
     13 C           4.5981   -1.5600    0.0000 C.2     1  UNL1        0.1673
     14 C           7.2641    0.9608    0.0000 C.ar    1  UNL1        0.0236
     15 C           7.2641   -0.0808    0.0000 C.ar    1  UNL1        0.3372
     16 C           3.7320   -2.0600    0.0000 C.3     1  UNL1       -0.0012
     17 C           2.0000   -0.0600    0.0000 C.3     1  UNL1        0.0790
     18 H           4.5981    2.0600    0.0000 H       1  UNL1        0.0662
     19 H           6.3509    2.0946    0.0000 H       1  UNL1        0.0627
     20 H           7.7998    1.2729    0.0000 H       1  UNL1        0.0689
     21 H           3.4220   -1.5231    0.0000 H       1  UNL1        0.0309
     22 H           3.1951   -2.3700    0.0000 H       1  UNL1        0.0309
     23 H           4.0420   -2.5969    0.0000 H       1  UNL1        0.0309
     24 H           2.8660    2.0600    0.0000 H       1  UNL1        0.2923
     25 H           2.3100    0.4769    0.0000 H       1  UNL1        0.0660
     26 H           1.4631    0.2500    0.0000 H       1  UNL1        0.0660
     27 H           1.6900   -0.5969    0.0000 H       1  UNL1        0.0660
@<TRIPOS>BOND
     1     1     7   ar
     2     1    15   ar
     3     2     9    1
     4     2    17    1
     5     3    11    1
     6     3    24    1
     7     4    13    2
     8     5    15    2
     9     6     7   ar
    10     6     9   ar
    11     6    13    1
    12     7     8   ar
    13     8    10   ar
    14     8    12   ar
    15     9    11   ar
    16    10    11   ar
    17    10    18    1
    18    12    14   ar
    19    12    19    1
    20    13    16    1
    21    14    15   ar
    22    14    20    1
    23    16    21    1
    24    16    22    1
    25    16    23    1
    26    17    25    1
    27    17    26    1
    28    17    27    1
