@<TRIPOS>MOLECULE
IMPHY008825
 31 34 0 0 0
SMALL
GASTEIGER

@<TRIPOS>ATOM
      1 O           2.5357   -3.1598    0.0000 O.3     1  UNL1       -0.2232
      2 C           7.9288   -1.1074    0.0000 C.3     1  UNL1        0.0037
      3 C           7.9288   -0.1074    0.0000 C.3     1  UNL1        0.0043
      4 C           7.0628   -1.6074    0.0000 C.3     1  UNL1        0.0180
      5 C           8.8750    0.1973    0.0000 C.3     1  UNL1        0.0003
      6 C           8.8750   -1.4122    0.0000 C.3     1  UNL1        0.0003
      7 C           5.2868   -1.6143    0.0000 C.3     1  UNL1        0.0150
      8 C           6.1968   -1.1074    0.0000 C.2     1  UNL1       -0.0494
      9 C           9.4586   -0.6074    0.0000 C.3     1  UNL1        0.0000
     10 C           5.2787   -2.6559    0.0000 C.3     1  UNL1        0.0059
     11 C           7.0628    0.3926    0.0000 C.3     1  UNL1        0.0254
     12 C           7.0789   -2.6489    0.0000 C.3     1  UNL1        0.0040
     13 C           6.1808   -3.1767    0.0000 C.3     1  UNL1        0.0007
     14 C           7.9288   -2.1074    0.0000 C.3     1  UNL1        0.0003
     15 C           9.1857    1.1478    0.0000 C.3     1  UNL1        0.0000
     16 C           6.1968   -0.1074    0.0000 C.2     1  UNL1       -0.0346
     17 C           7.9288    0.8926    0.0000 C.3     1  UNL1        0.0003
     18 C           4.3433   -3.2056    0.0000 C.3     1  UNL1        0.0307
     19 C           4.3599   -1.0502    0.0000 C.3     1  UNL1        0.0063
     20 C           5.2945   -0.6143    0.0000 C.3     1  UNL1        0.0040
     21 C           3.4037   -2.6631    0.0000 C.3     1  UNL1        0.1520
     22 C           3.4120   -1.5781    0.0000 C.3     1  UNL1        0.0332
     23 C          10.1642    1.3540    0.0000 C.3     1  UNL1        0.0000
     24 C           8.5179    1.8921    0.0000 C.3     1  UNL1        0.0000
     25 C           4.3472   -4.2056    0.0000 C.3     1  UNL1        0.0026
     26 C          10.4749    2.3046    0.0000 C.3     1  UNL1        0.0000
     27 C          11.4534    2.5108    0.0000 C.3     1  UNL1        0.0000
     28 C          11.7640    3.4613    0.0000 C.3     1  UNL1        0.0000
     29 C          12.1212    1.7665    0.0000 C.3     1  UNL1        0.0000
     30 C          12.7425    3.6675    0.0000 C.3     1  UNL1        0.0000
     31 C          11.0962    4.2056    0.0000 C.3     1  UNL1        0.0000
@<TRIPOS>BOND
     1     1    21    1
     2     2     3    1
     3     2     4    1
     4     2     6    1
     5     2    14    1
     6     3     5    1
     7     3    11    1
     8     3    17    1
     9     4     8    1
    10     4    12    1
    11     5     9    1
    12     5    15    1
    13     6     9    1
    14     7     8    1
    15     7    10    1
    16     7    19    1
    17     7    20    1
    18     8    16    2
    19    10    13    1
    20    10    18    1
    21    11    16    1
    22    12    13    1
    23    15    23    1
    24    15    24    1
    25    18    21    1
    26    18    25    1
    27    19    22    1
    28    21    22    1
    29    23    26    1
    30    26    27    1
    31    27    28    1
    32    27    29    1
    33    28    30    1
    34    28    31    1
