@<TRIPOS>MOLECULE
IMPHY005511
 59 63 0 0 0
SMALL
GASTEIGER

@<TRIPOS>ATOM
      1 O           7.3494    0.9405    0.0000 O.3     1  UNL1       -0.3586
      2 O           7.9771   -1.9063    0.0000 O.3     1  UNL1       -0.4607
      3 O           5.3307    1.6441    0.0000 O.3     1  UNL1       -0.3888
      4 O           7.0628    2.6441    0.0000 O.3     1  UNL1       -0.3858
      5 O           9.4288    2.0101    0.0000 O.3     1  UNL1       -0.4628
      6 O           7.9288    2.8761    0.0000 O.2     1  UNL1       -0.2475
      7 O           9.7386   -1.8589    0.0000 O.2     1  UNL1       -0.2508
      8 O           2.5357   -1.9082    0.0000 O.2     1  UNL1       -0.5034
      9 O           2.5519    0.1834    0.0000 O.2     1  UNL1       -0.2888
     10 C           7.0628   -0.3559    0.0000 C.3     1  UNL1        0.0434
     11 C           6.1968    0.1441    0.0000 C.3     1  UNL1        0.0054
     12 C           7.9288    0.1441    0.0000 C.3     1  UNL1        0.0227
     13 C           5.2868   -0.3628    0.0000 C.3     1  UNL1       -0.0123
     14 C           7.9288    1.1441    0.0000 C.3     1  UNL1        0.1973
     15 C           7.0789   -1.3974    0.0000 C.3     1  UNL1        0.1120
     16 C           6.1968    1.1441    0.0000 C.3     1  UNL1        0.0884
     17 C           5.2787   -1.4044    0.0000 C.3     1  UNL1       -0.0068
     18 C           6.9494    0.2477    0.0000 C.3     1  UNL1        0.0589
     19 C           7.0628    1.6441    0.0000 C.3     1  UNL1        0.1209
     20 C           6.1808   -1.9252    0.0000 C.3     1  UNL1       -0.0079
     21 C           8.8386   -0.3439    0.0000 C.3     1  UNL1        0.0517
     22 C           4.3599    0.2013    0.0000 C.3     1  UNL1        0.0198
     23 C           4.9520    0.5795    0.0000 C.3     1  UNL1       -0.0583
     24 C           4.3433   -1.9541    0.0000 C.2     1  UNL1       -0.0240
     25 C           8.4288    2.0101    0.0000 C.2     1  UNL1        0.3424
     26 C           8.8629   -1.3760    0.0000 C.2     1  UNL1        0.3078
     27 C           3.4120   -0.3266    0.0000 C.2     1  UNL1        0.1976
     28 C           3.4037   -1.4116    0.0000 C.2     1  UNL1        0.1584
     29 C           4.3472   -2.9541    0.0000 C.3     1  UNL1       -0.0397
     30 C           9.9288    2.8761    0.0000 C.3     1  UNL1        0.0897
     31 C          10.9288    2.8761    0.0000 C.3     1  UNL1       -0.0306
     32 H           5.4606    0.5691    0.0000 H       1  UNL1        0.0339
     33 H           8.7276    0.4348    0.0000 H       1  UNL1        0.0348
     34 H           7.0856   -2.2474    0.0000 H       1  UNL1        0.0740
     35 H           6.1968    1.7641    0.0000 H       1  UNL1        0.0623
     36 H           5.2820   -2.2544    0.0000 H       1  UNL1        0.0353
     37 H           6.5222    0.6971    0.0000 H       1  UNL1        0.0567
     38 H           6.3974   -0.0347    0.0000 H       1  UNL1        0.0567
     39 H           7.5997    1.9541    0.0000 H       1  UNL1        0.0654
     40 H           5.7835   -2.4012    0.0000 H       1  UNL1        0.0307
     41 H           6.5818   -2.3981    0.0000 H       1  UNL1        0.0307
     42 H           9.4518   -0.4356    0.0000 H       1  UNL1        0.0381
     43 H           9.0339    0.2445    0.0000 H       1  UNL1        0.0381
     44 H           4.7681    0.6680    0.0000 H       1  UNL1        0.0352
     45 H           3.9700    0.6834    0.0000 H       1  UNL1        0.0352
     46 H           5.5362    0.7871    0.0000 H       1  UNL1        0.0235
     47 H           4.7444    1.1638    0.0000 H       1  UNL1        0.0235
     48 H           4.3678    0.3720    0.0000 H       1  UNL1        0.0235
     49 H           5.3307    2.2641    0.0000 H       1  UNL1        0.2099
     50 H           6.5259    2.9541    0.0000 H       1  UNL1        0.2100
     51 H           3.7272   -2.9565    0.0000 H       1  UNL1        0.0276
     52 H           4.3496   -3.5741    0.0000 H       1  UNL1        0.0276
     53 H           4.9672   -2.9517    0.0000 H       1  UNL1        0.0276
     54 H           2.0000   -1.5962    0.0000 H       1  UNL1        0.2923
     55 H          10.0365    3.4867    0.0000 H       1  UNL1        0.0694
     56 H           9.3462    3.0882    0.0000 H       1  UNL1        0.0694
     57 H          10.9288    2.2561    0.0000 H       1  UNL1        0.0262
     58 H          11.5488    2.8761    0.0000 H       1  UNL1        0.0262
     59 H          10.9288    3.4961    0.0000 H       1  UNL1        0.0262
@<TRIPOS>BOND
     1     1    14    1
     2     1    18    1
     3     2    15    1
     4     2    26    1
     5    16     3    1
     6     3    49    1
     7    19     4    1
     8     4    50    1
     9     5    25    1
    10     5    30    1
    11     6    25    2
    12     7    26    2
    13     8    28    1
    14     8    54    1
    15     9    27    2
    16    10    11    1
    17    10    12    1
    18    10    15    1
    19    10    18    1
    20    11    13    1
    21    11    16    1
    22    11    32    1
    23    12    14    1
    24    12    21    1
    25    12    33    1
    26    13    17    1
    27    13    22    1
    28    13    23    1
    29    14    19    1
    30    14    25    1
    31    15    20    1
    32    15    34    1
    33    16    19    1
    34    16    35    1
    35    17    20    1
    36    17    24    1
    37    17    36    1
    38    18    37    1
    39    18    38    1
    40    19    39    1
    41    20    40    1
    42    20    41    1
    43    21    26    1
    44    21    42    1
    45    21    43    1
    46    22    27    1
    47    22    44    1
    48    22    45    1
    49    23    46    1
    50    23    47    1
    51    23    48    1
    52    24    28    2
    53    24    29    1
    54    27    28    1
    55    29    51    1
    56    29    52    1
    57    29    53    1
    58    30    31    1
    59    30    55    1
    60    30    56    1
    61    31    57    1
    62    31    58    1
    63    31    59    1
