@<TRIPOS>MOLECULE
IMPHY005770
 40 39 0 0 0
SMALL
GASTEIGER

@<TRIPOS>ATOM
      1 N           9.4651   -0.2500    0.0000 N.3     1  UNL1       -0.3159
      2 N           6.0010   -0.2500    0.0000 N.3     1  UNL1       -0.3159
      3 N          13.7953    0.2500    0.0000 N.3     1  UNL1       -0.3300
      4 N           2.5369   -0.2500    0.0000 N.3     1  UNL1       -0.3299
      5 C           7.7331   -0.2500    0.0000 C.3     1  UNL1       -0.0278
      6 C           8.5991    0.2500    0.0000 C.3     1  UNL1       -0.0030
      7 C           6.8671    0.2500    0.0000 C.3     1  UNL1       -0.0030
      8 C          10.3312    0.2500    0.0000 C.3     1  UNL1       -0.0041
      9 C          11.1972   -0.2500    0.0000 C.3     1  UNL1       -0.0393
     10 C          12.0632    0.2500    0.0000 C.3     1  UNL1       -0.0395
     11 C           5.1350    0.2500    0.0000 C.3     1  UNL1       -0.0030
     12 C           4.2690   -0.2500    0.0000 C.3     1  UNL1       -0.0281
     13 C          12.9292   -0.2500    0.0000 C.3     1  UNL1       -0.0069
     14 C           3.4030    0.2500    0.0000 C.3     1  UNL1       -0.0058
     15 H           7.3346   -0.7249    0.0000 H       1  UNL1        0.0290
     16 H           8.1316   -0.7249    0.0000 H       1  UNL1        0.0290
     17 H           8.9976    0.7249    0.0000 H       1  UNL1        0.0424
     18 H           8.2006    0.7249    0.0000 H       1  UNL1        0.0424
     19 H           7.2656    0.7249    0.0000 H       1  UNL1        0.0424
     20 H           6.4685    0.7249    0.0000 H       1  UNL1        0.0424
     21 H          10.7297    0.7249    0.0000 H       1  UNL1        0.0424
     22 H           9.9326    0.7249    0.0000 H       1  UNL1        0.0424
     23 H          10.7987   -0.7249    0.0000 H       1  UNL1        0.0278
     24 H          11.5957   -0.7249    0.0000 H       1  UNL1        0.0278
     25 H           9.4651   -0.8700    0.0000 H       1  UNL1        0.1219
     26 H          12.4617    0.7249    0.0000 H       1  UNL1        0.0278
     27 H          11.6647    0.7249    0.0000 H       1  UNL1        0.0278
     28 H           5.5335    0.7249    0.0000 H       1  UNL1        0.0424
     29 H           4.7365    0.7249    0.0000 H       1  UNL1        0.0424
     30 H           6.0010   -0.8700    0.0000 H       1  UNL1        0.1219
     31 H           3.8705   -0.7249    0.0000 H       1  UNL1        0.0290
     32 H           4.6675   -0.7249    0.0000 H       1  UNL1        0.0290
     33 H          12.5307   -0.7249    0.0000 H       1  UNL1        0.0422
     34 H          13.3278   -0.7249    0.0000 H       1  UNL1        0.0422
     35 H           3.8015    0.7249    0.0000 H       1  UNL1        0.0422
     36 H           3.0044    0.7249    0.0000 H       1  UNL1        0.0422
     37 H          14.3322   -0.0600    0.0000 H       1  UNL1        0.1182
     38 H          13.7953    0.8700    0.0000 H       1  UNL1        0.1182
     39 H           2.0000    0.0600    0.0000 H       1  UNL1        0.1182
     40 H           2.5369   -0.8700    0.0000 H       1  UNL1        0.1182
@<TRIPOS>BOND
     1     1     6    1
     2     1     8    1
     3     1    25    1
     4     2     7    1
     5     2    11    1
     6     2    30    1
     7     3    13    1
     8     3    37    1
     9     3    38    1
    10     4    14    1
    11     4    39    1
    12     4    40    1
    13     5     6    1
    14     5     7    1
    15     5    15    1
    16     5    16    1
    17     6    17    1
    18     6    18    1
    19     7    19    1
    20     7    20    1
    21     8     9    1
    22     8    21    1
    23     8    22    1
    24     9    10    1
    25     9    23    1
    26     9    24    1
    27    10    13    1
    28    10    26    1
    29    10    27    1
    30    11    12    1
    31    11    28    1
    32    11    29    1
    33    12    14    1
    34    12    31    1
    35    12    32    1
    36    13    33    1
    37    13    34    1
    38    14    35    1
    39    14    36    1
