@<TRIPOS>MOLECULE
IMPHY003871
 63 65 0 0 0
SMALL
GASTEIGER

@<TRIPOS>ATOM
      1 O           4.2690   -2.0000    0.0000 O.3     1  UNL1       -0.3405
      2 O           6.0010   -2.0000    0.0000 O.3     1  UNL1       -0.3425
      3 O           4.2690   -5.0000    0.0000 O.3     1  UNL1       -0.3864
      4 O           6.0010   -4.0000    0.0000 O.3     1  UNL1       -0.3841
      5 O           2.5369   -4.0000    0.0000 O.3     1  UNL1       -0.3865
      6 O           2.5369   -1.0000    0.0000 O.3     1  UNL1       -0.3924
      7 O           7.7331   -1.0000    0.0000 O.3     1  UNL1       -0.3846
      8 O           3.4030    0.5000    0.0000 O.2     1  UNL1       -0.2921
      9 O           8.5991    2.5000    0.0000 O.3     1  UNL1       -0.5033
     10 O           6.8671    3.5000    0.0000 O.3     1  UNL1       -0.5033
     11 O           6.0010    4.0000    0.0000 O.3     1  UNL1       -0.5033
     12 O           4.2690    5.0000    0.0000 O.3     1  UNL1       -0.5033
     13 C           4.2690   -4.0000    0.0000 C.3     1  UNL1        0.1141
     14 C           5.1350   -3.5000    0.0000 C.3     1  UNL1        0.1341
     15 C           3.4030   -3.5000    0.0000 C.3     1  UNL1        0.1119
     16 C           5.1350   -2.5000    0.0000 C.3     1  UNL1        0.1883
     17 C           3.4030   -2.5000    0.0000 C.3     1  UNL1        0.1130
     18 C           6.0010   -1.0000    0.0000 C.3     1  UNL1        0.0921
     19 C           2.5369   -2.0000    0.0000 C.3     1  UNL1        0.0730
     20 C           5.1350   -0.5000    0.0000 C.3     1  UNL1       -0.0167
     21 C           6.8671   -0.5000    0.0000 C.3     1  UNL1        0.1065
     22 C           5.1350    0.5000    0.0000 C.3     1  UNL1        0.0129
     23 C           6.8671    0.5000    0.0000 C.ar    1  UNL1       -0.0130
     24 C           4.2690    1.0000    0.0000 C.2     1  UNL1        0.1634
     25 C           7.7331    1.0000    0.0000 C.ar    1  UNL1       -0.0108
     26 C           6.0010    1.0000    0.0000 C.ar    1  UNL1       -0.0524
     27 C           4.2690    2.0000    0.0000 C.ar    1  UNL1        0.0211
     28 C           7.7331    2.0000    0.0000 C.ar    1  UNL1        0.1586
     29 C           6.0010    2.0000    0.0000 C.ar    1  UNL1       -0.0162
     30 C           6.8671    2.5000    0.0000 C.ar    1  UNL1        0.1582
     31 C           5.1350    2.5000    0.0000 C.ar    1  UNL1       -0.0061
     32 C           3.4030    2.5000    0.0000 C.ar    1  UNL1       -0.0476
     33 C           5.1350    3.5000    0.0000 C.ar    1  UNL1        0.1589
     34 C           3.4030    3.5000    0.0000 C.ar    1  UNL1       -0.0159
     35 C           4.2690    4.0000    0.0000 C.ar    1  UNL1        0.1583
     36 H           4.8059   -4.3100    0.0000 H       1  UNL1        0.0648
     37 H           5.6720   -3.1900    0.0000 H       1  UNL1        0.0671
     38 H           3.4030   -4.1200    0.0000 H       1  UNL1        0.0647
     39 H           5.1350   -1.8800    0.0000 H       1  UNL1        0.0938
     40 H           3.4030   -1.8800    0.0000 H       1  UNL1        0.0647
     41 H           6.5380   -1.3100    0.0000 H       1  UNL1        0.0626
     42 H           1.9264   -1.8923    0.0000 H       1  UNL1        0.0584
     43 H           2.3249   -2.5826    0.0000 H       1  UNL1        0.0584
     44 H           4.5244   -0.3923    0.0000 H       1  UNL1        0.0295
     45 H           4.9230   -1.0826    0.0000 H       1  UNL1        0.0295
     46 H           7.4040   -0.1900    0.0000 H       1  UNL1        0.0670
     47 H           3.7320   -5.3100    0.0000 H       1  UNL1        0.2100
     48 H           6.0010   -4.6200    0.0000 H       1  UNL1        0.2101
     49 H           2.0000   -3.6900    0.0000 H       1  UNL1        0.2100
     50 H           5.7456    0.3923    0.0000 H       1  UNL1        0.0346
     51 H           5.3471    1.0826    0.0000 H       1  UNL1        0.0346
     52 H           2.0000   -0.6900    0.0000 H       1  UNL1        0.2095
     53 H           8.2700   -0.6900    0.0000 H       1  UNL1        0.2103
     54 H           8.2700    0.6900    0.0000 H       1  UNL1        0.0659
     55 H           5.4641    0.6900    0.0000 H       1  UNL1        0.0622
     56 H           5.4641    2.3100    0.0000 H       1  UNL1        0.0655
     57 H           5.6720    2.1900    0.0000 H       1  UNL1        0.0662
     58 H           2.8660    2.1900    0.0000 H       1  UNL1        0.0626
     59 H           2.8660    3.8100    0.0000 H       1  UNL1        0.0655
     60 H           9.1360    2.1900    0.0000 H       1  UNL1        0.2923
     61 H           7.4040    3.8100    0.0000 H       1  UNL1        0.2923
     62 H           6.0010    4.6200    0.0000 H       1  UNL1        0.2923
     63 H           3.7320    5.3100    0.0000 H       1  UNL1        0.2923
@<TRIPOS>BOND
     1     1    16    1
     2     1    17    1
     3    16     2    1
     4    18     2    1
     5    13     3    1
     6     3    47    1
     7    14     4    1
     8     4    48    1
     9    15     5    1
    10     5    49    1
    11     6    19    1
    12     6    52    1
    13    21     7    1
    14     7    53    1
    15     8    24    2
    16     9    28    1
    17     9    60    1
    18    10    30    1
    19    10    61    1
    20    11    33    1
    21    11    62    1
    22    12    35    1
    23    12    63    1
    24    13    14    1
    25    13    15    1
    26    13    36    1
    27    14    16    1
    28    14    37    1
    29    15    17    1
    30    15    38    1
    31    16    39    1
    32    17    19    1
    33    17    40    1
    34    18    20    1
    35    18    21    1
    36    18    41    1
    37    19    42    1
    38    19    43    1
    39    20    22    1
    40    20    44    1
    41    20    45    1
    42    21    23    1
    43    21    46    1
    44    22    24    1
    45    22    50    1
    46    22    51    1
    47    23    25   ar
    48    23    26   ar
    49    24    27    1
    50    25    28   ar
    51    25    54    1
    52    26    29   ar
    53    26    55    1
    54    27    31   ar
    55    27    32   ar
    56    28    30   ar
    57    29    30   ar
    58    29    56    1
    59    31    33   ar
    60    31    57    1
    61    32    34   ar
    62    32    58    1
    63    33    35   ar
    64    34    35   ar
    65    34    59    1
