@<TRIPOS>MOLECULE
IMPHY017488
 56 55 0 0 0
SMALL
GASTEIGER

@<TRIPOS>ATOM
      1 O          14.1244    0.2500    0.0000 O.3     1  UNL1       -0.4645
      2 O          14.9904   -1.2500    0.0000 O.2     1  UNL1       -0.2506
      3 C           8.0622   -0.2500    0.0000 C.3     1  UNL1       -0.0531
      4 C           7.1962    0.2500    0.0000 C.3     1  UNL1       -0.0531
      5 C           8.9282    0.2500    0.0000 C.3     1  UNL1       -0.0531
      6 C           6.3301   -0.2500    0.0000 C.3     1  UNL1       -0.0531
      7 C           9.7942   -0.2500    0.0000 C.3     1  UNL1       -0.0531
      8 C           5.4641    0.2500    0.0000 C.3     1  UNL1       -0.0531
      9 C          10.6603    0.2500    0.0000 C.3     1  UNL1       -0.0530
     10 C           4.5981   -0.2500    0.0000 C.3     1  UNL1       -0.0531
     11 C          11.5263   -0.2500    0.0000 C.3     1  UNL1       -0.0500
     12 C           3.7320    0.2500    0.0000 C.3     1  UNL1       -0.0533
     13 C          12.3923    0.2500    0.0000 C.3     1  UNL1       -0.0185
     14 C           2.8660   -0.2500    0.0000 C.3     1  UNL1       -0.0559
     15 C          13.2583   -0.2500    0.0000 C.3     1  UNL1        0.0925
     16 C           2.0000    0.2500    0.0000 C.3     1  UNL1       -0.0653
     17 C          15.8564    0.2500    0.0000 C.3     1  UNL1        0.0508
     18 C          14.9904   -0.2500    0.0000 C.2     1  UNL1        0.3097
     19 C          16.7224   -0.2500    0.0000 C.3     1  UNL1       -0.0525
     20 C          15.8564    1.2500    0.0000 C.3     1  UNL1       -0.0525
     21 H           7.6636   -0.7249    0.0000 H       1  UNL1        0.0265
     22 H           8.4607   -0.7249    0.0000 H       1  UNL1        0.0265
     23 H           7.5947    0.7249    0.0000 H       1  UNL1        0.0265
     24 H           6.7976    0.7249    0.0000 H       1  UNL1        0.0265
     25 H           9.3267    0.7249    0.0000 H       1  UNL1        0.0265
     26 H           8.5297    0.7249    0.0000 H       1  UNL1        0.0265
     27 H           5.9316   -0.7249    0.0000 H       1  UNL1        0.0265
     28 H           6.7287   -0.7249    0.0000 H       1  UNL1        0.0265
     29 H           9.3957   -0.7249    0.0000 H       1  UNL1        0.0265
     30 H          10.1928   -0.7249    0.0000 H       1  UNL1        0.0265
     31 H           5.8626    0.7249    0.0000 H       1  UNL1        0.0265
     32 H           5.0656    0.7249    0.0000 H       1  UNL1        0.0265
     33 H          11.0588    0.7249    0.0000 H       1  UNL1        0.0265
     34 H          10.2617    0.7249    0.0000 H       1  UNL1        0.0265
     35 H           4.1996   -0.7249    0.0000 H       1  UNL1        0.0265
     36 H           4.9966   -0.7249    0.0000 H       1  UNL1        0.0265
     37 H          11.1278   -0.7249    0.0000 H       1  UNL1        0.0266
     38 H          11.9248   -0.7249    0.0000 H       1  UNL1        0.0266
     39 H           4.1306    0.7249    0.0000 H       1  UNL1        0.0265
     40 H           3.3335    0.7249    0.0000 H       1  UNL1        0.0265
     41 H          12.7908    0.7249    0.0000 H       1  UNL1        0.0298
     42 H          11.9938    0.7249    0.0000 H       1  UNL1        0.0298
     43 H           2.4675   -0.7249    0.0000 H       1  UNL1        0.0263
     44 H           3.2646   -0.7249    0.0000 H       1  UNL1        0.0263
     45 H          12.8598   -0.7249    0.0000 H       1  UNL1        0.0697
     46 H          13.6569   -0.7249    0.0000 H       1  UNL1        0.0697
     47 H           2.3100    0.7869    0.0000 H       1  UNL1        0.0230
     48 H           1.4631    0.5600    0.0000 H       1  UNL1        0.0230
     49 H           1.6900   -0.2869    0.0000 H       1  UNL1        0.0230
     50 H          16.3933    0.5600    0.0000 H       1  UNL1        0.0408
     51 H          16.4124   -0.7869    0.0000 H       1  UNL1        0.0237
     52 H          17.2594   -0.5600    0.0000 H       1  UNL1        0.0237
     53 H          17.0324    0.2869    0.0000 H       1  UNL1        0.0237
     54 H          16.4764    1.2500    0.0000 H       1  UNL1        0.0237
     55 H          15.8564    1.8700    0.0000 H       1  UNL1        0.0237
     56 H          15.2364    1.2500    0.0000 H       1  UNL1        0.0237
@<TRIPOS>BOND
     1     1    15    1
     2     1    18    1
     3     2    18    2
     4     3     4    1
     5     3     5    1
     6     3    21    1
     7     3    22    1
     8     4     6    1
     9     4    23    1
    10     4    24    1
    11     5     7    1
    12     5    25    1
    13     5    26    1
    14     6     8    1
    15     6    27    1
    16     6    28    1
    17     7     9    1
    18     7    29    1
    19     7    30    1
    20     8    10    1
    21     8    31    1
    22     8    32    1
    23     9    11    1
    24     9    33    1
    25     9    34    1
    26    10    12    1
    27    10    35    1
    28    10    36    1
    29    11    13    1
    30    11    37    1
    31    11    38    1
    32    12    14    1
    33    12    39    1
    34    12    40    1
    35    13    15    1
    36    13    41    1
    37    13    42    1
    38    14    16    1
    39    14    43    1
    40    14    44    1
    41    15    45    1
    42    15    46    1
    43    16    47    1
    44    16    48    1
    45    16    49    1
    46    17    18    1
    47    17    19    1
    48    17    20    1
    49    17    50    1
    50    19    51    1
    51    19    52    1
    52    19    53    1
    53    20    54    1
    54    20    55    1
    55    20    56    1
