@<TRIPOS>MOLECULE
IMPHY006175
 20 20 0 0 0
SMALL
GASTEIGER

@<TRIPOS>ATOM
      1 O           4.2690   -2.3100    0.0000 O.3     1  UNL1       -0.4950
      2 O           2.5369    0.6900    0.0000 O.3     1  UNL1       -0.5058
      3 O           5.1350    2.1900    0.0000 O.3     1  UNL1       -0.4770
      4 O           3.4030    2.1900    0.0000 O.2     1  UNL1       -0.2450
      5 C           4.2690    0.6900    0.0000 C.ar    1  UNL1        0.1003
      6 C           4.2690   -1.3100    0.0000 C.ar    1  UNL1        0.1236
      7 C           3.4030    0.1900    0.0000 C.ar    1  UNL1        0.1343
      8 C           3.4030   -0.8100    0.0000 C.ar    1  UNL1        0.0223
      9 C           5.1350    0.1900    0.0000 C.ar    1  UNL1       -0.0408
     10 C           5.1350   -0.8100    0.0000 C.ar    1  UNL1       -0.0189
     11 C           4.2690    1.6900    0.0000 C.2     1  UNL1        0.3404
     12 C           5.1350   -2.8100    0.0000 C.3     1  UNL1        0.0788
     13 H           2.8660   -1.1200    0.0000 H       1  UNL1        0.0691
     14 H           5.6720    0.5000    0.0000 H       1  UNL1        0.0628
     15 H           5.6720   -1.1200    0.0000 H       1  UNL1        0.0654
     16 H           4.8250   -3.3469    0.0000 H       1  UNL1        0.0660
     17 H           5.6720   -3.1200    0.0000 H       1  UNL1        0.0660
     18 H           5.4450   -2.2731    0.0000 H       1  UNL1        0.0660
     19 H           2.0000    0.3800    0.0000 H       1  UNL1        0.2922
     20 H           5.1350    2.8100    0.0000 H       1  UNL1        0.2954
@<TRIPOS>BOND
     1     1     6    1
     2     1    12    1
     3     2     7    1
     4     2    19    1
     5     3    11    1
     6     3    20    1
     7     4    11    2
     8     5     7   ar
     9     5     9   ar
    10     5    11    1
    11     6     8   ar
    12     6    10   ar
    13     7     8   ar
    14     8    13    1
    15     9    10   ar
    16     9    14    1
    17    10    15    1
    18    12    16    1
    19    12    17    1
    20    12    18    1
