@<TRIPOS>MOLECULE
IMPHY017741
 25 25 0 0 0
SMALL
GASTEIGER

@<TRIPOS>ATOM
      1 O           2.5369    0.2500    0.0000 O.3     1  UNL1       -0.5065
      2 C           4.2690    1.2500    0.0000 C.3     1  UNL1       -0.0181
      3 C           4.2690    0.2500    0.0000 C.ar    1  UNL1       -0.0031
      4 C           5.1350    1.7500    0.0000 C.3     1  UNL1       -0.0585
      5 C           3.4030    1.7500    0.0000 C.3     1  UNL1       -0.0585
      6 C           5.1350   -0.2500    0.0000 C.ar    1  UNL1       -0.0519
      7 C           3.4030   -0.2500    0.0000 C.ar    1  UNL1        0.1203
      8 C           5.1350   -1.2500    0.0000 C.ar    1  UNL1       -0.0500
      9 C           3.4030   -1.2500    0.0000 C.ar    1  UNL1       -0.0197
     10 C           4.2690   -1.7500    0.0000 C.ar    1  UNL1       -0.0554
     11 C           6.0010   -1.7500    0.0000 C.3     1  UNL1       -0.0397
     12 H           4.2690    1.8700    0.0000 H       1  UNL1        0.0345
     13 H           5.4450    1.2131    0.0000 H       1  UNL1        0.0235
     14 H           5.6720    2.0600    0.0000 H       1  UNL1        0.0235
     15 H           4.8250    2.2869    0.0000 H       1  UNL1        0.0235
     16 H           3.7130    2.2869    0.0000 H       1  UNL1        0.0235
     17 H           2.8660    2.0600    0.0000 H       1  UNL1        0.0235
     18 H           3.0930    1.2131    0.0000 H       1  UNL1        0.0235
     19 H           5.6720    0.0600    0.0000 H       1  UNL1        0.0624
     20 H           2.8660   -1.5600    0.0000 H       1  UNL1        0.0654
     21 H           4.2690   -2.3700    0.0000 H       1  UNL1        0.0621
     22 H           5.6910   -2.2869    0.0000 H       1  UNL1        0.0278
     23 H           6.5380   -2.0600    0.0000 H       1  UNL1        0.0278
     24 H           6.3110   -1.2131    0.0000 H       1  UNL1        0.0278
     25 H           2.0000   -0.0600    0.0000 H       1  UNL1        0.2921
@<TRIPOS>BOND
     1     1     7    1
     2     1    25    1
     3     2     3    1
     4     2     4    1
     5     2     5    1
     6     2    12    1
     7     3     6   ar
     8     3     7   ar
     9     4    13    1
    10     4    14    1
    11     4    15    1
    12     5    16    1
    13     5    17    1
    14     5    18    1
    15     6     8   ar
    16     6    19    1
    17     7     9   ar
    18     8    10   ar
    19     8    11    1
    20     9    10   ar
    21     9    20    1
    22    10    21    1
    23    11    22    1
    24    11    23    1
    25    11    24    1
