@<TRIPOS>MOLECULE
IMPHY003940
 90 91 0 0 0
SMALL
GASTEIGER

@<TRIPOS>ATOM
      1 O           7.7331    5.0000    0.0000 O.3     1  UNL1       -0.3312
      2 O           4.2690    4.0000    0.0000 O.3     1  UNL1       -0.3405
      3 O           6.0010    4.0000    0.0000 O.3     1  UNL1       -0.3460
      4 O           6.0010    7.0000    0.0000 O.3     1  UNL1       -0.3865
      5 O           6.0010    2.0000    0.0000 O.3     1  UNL1       -0.3841
      6 O           7.7331    8.0000    0.0000 O.3     1  UNL1       -0.3864
      7 O           4.2690    1.0000    0.0000 O.3     1  UNL1       -0.3864
      8 O           2.5369    2.0000    0.0000 O.3     1  UNL1       -0.3865
      9 O           9.4651    7.0000    0.0000 O.3     1  UNL1       -0.3829
     10 O           9.4651    5.0000    0.0000 O.3     1  UNL1       -0.4290
     11 O           2.5369    5.0000    0.0000 O.3     1  UNL1       -0.3924
     12 O           8.5991    3.5000    0.0000 O.2     1  UNL1       -0.2452
     13 O          16.3933   -8.0000    0.0000 O.3     1  UNL1       -0.4773
     14 O          17.2594   -6.5000    0.0000 O.2     1  UNL1       -0.2455
     15 C           6.8671    5.5000    0.0000 C.3     1  UNL1        0.1144
     16 C           6.8671    6.5000    0.0000 C.3     1  UNL1        0.1120
     17 C           5.1350    2.5000    0.0000 C.3     1  UNL1        0.1341
     18 C           7.7331    7.0000    0.0000 C.3     1  UNL1        0.1152
     19 C           4.2690    2.0000    0.0000 C.3     1  UNL1        0.1141
     20 C           5.1350    3.5000    0.0000 C.3     1  UNL1        0.1880
     21 C           3.4030    2.5000    0.0000 C.3     1  UNL1        0.1119
     22 C           3.4030    3.5000    0.0000 C.3     1  UNL1        0.1130
     23 C           8.5991    6.5000    0.0000 C.3     1  UNL1        0.1455
     24 C           6.0010    5.0000    0.0000 C.3     1  UNL1        0.0796
     25 C           8.5991    5.5000    0.0000 C.3     1  UNL1        0.2341
     26 C           2.5369    4.0000    0.0000 C.3     1  UNL1        0.0730
     27 C           9.4651    4.0000    0.0000 C.2     1  UNL1        0.3371
     28 C          10.3312    3.5000    0.0000 C.2     1  UNL1        0.0336
     29 C          11.1972    4.0000    0.0000 C.3     1  UNL1       -0.0329
     30 C          10.3312    2.5000    0.0000 C.2     1  UNL1       -0.0521
     31 C          11.1972    2.0000    0.0000 C.2     1  UNL1       -0.0610
     32 C          11.1972    1.0000    0.0000 C.2     1  UNL1       -0.0588
     33 C          12.0632    0.5000    0.0000 C.2     1  UNL1       -0.0504
     34 C          12.9292    1.0000    0.0000 C.3     1  UNL1       -0.0397
     35 C          12.0632   -0.5000    0.0000 C.2     1  UNL1       -0.0588
     36 C          12.9292   -1.0000    0.0000 C.2     1  UNL1       -0.0615
     37 C          12.9292   -2.0000    0.0000 C.2     1  UNL1       -0.0615
     38 C          13.7953   -2.5000    0.0000 C.2     1  UNL1       -0.0588
     39 C          13.7953   -3.5000    0.0000 C.2     1  UNL1       -0.0504
     40 C          12.9292   -4.0000    0.0000 C.3     1  UNL1       -0.0397
     41 C          14.6613   -4.0000    0.0000 C.2     1  UNL1       -0.0588
     42 C          14.6613   -5.0000    0.0000 C.2     1  UNL1       -0.0610
     43 C          15.5273   -5.5000    0.0000 C.2     1  UNL1       -0.0521
     44 C          15.5273   -6.5000    0.0000 C.2     1  UNL1        0.0333
     45 C          14.6613   -7.0000    0.0000 C.3     1  UNL1       -0.0329
     46 C          16.3933   -7.0000    0.0000 C.2     1  UNL1        0.3325
     47 H           6.8671    4.8800    0.0000 H       1  UNL1        0.0647
     48 H           6.3301    6.1900    0.0000 H       1  UNL1        0.0647
     49 H           5.6720    2.8100    0.0000 H       1  UNL1        0.0671
     50 H           7.1962    7.3100    0.0000 H       1  UNL1        0.0648
     51 H           3.7320    1.6900    0.0000 H       1  UNL1        0.0648
     52 H           5.1350    4.1200    0.0000 H       1  UNL1        0.0937
     53 H           2.8660    2.8100    0.0000 H       1  UNL1        0.0647
     54 H           3.4030    4.1200    0.0000 H       1  UNL1        0.0647
     55 H           8.5991    7.1200    0.0000 H       1  UNL1        0.0683
     56 H           5.7890    5.5826    0.0000 H       1  UNL1        0.0587
     57 H           5.3905    4.8923    0.0000 H       1  UNL1        0.0587
     58 H           8.5991    4.8800    0.0000 H       1  UNL1        0.1085
     59 H           1.9264    4.1077    0.0000 H       1  UNL1        0.0584
     60 H           2.3249    3.4174    0.0000 H       1  UNL1        0.0584
     61 H           6.0010    7.6200    0.0000 H       1  UNL1        0.2100
     62 H           6.5380    2.3100    0.0000 H       1  UNL1        0.2101
     63 H           8.2700    8.3100    0.0000 H       1  UNL1        0.2100
     64 H           3.7320    0.6900    0.0000 H       1  UNL1        0.2100
     65 H           2.0000    2.3100    0.0000 H       1  UNL1        0.2100
     66 H          10.0021    6.6900    0.0000 H       1  UNL1        0.2102
     67 H           2.0000    5.3100    0.0000 H       1  UNL1        0.2095
     68 H          11.5072    3.4631    0.0000 H       1  UNL1        0.0280
     69 H          11.7341    4.3100    0.0000 H       1  UNL1        0.0280
     70 H          10.8872    4.5369    0.0000 H       1  UNL1        0.0280
     71 H           9.7942    2.1900    0.0000 H       1  UNL1        0.0622
     72 H          11.7341    2.3100    0.0000 H       1  UNL1        0.0618
     73 H          10.6603    0.6900    0.0000 H       1  UNL1        0.0620
     74 H          13.2392    0.4631    0.0000 H       1  UNL1        0.0278
     75 H          13.4662    1.3100    0.0000 H       1  UNL1        0.0278
     76 H          12.6192    1.5369    0.0000 H       1  UNL1        0.0278
     77 H          11.5263   -0.8100    0.0000 H       1  UNL1        0.0620
     78 H          13.4662   -0.6900    0.0000 H       1  UNL1        0.0618
     79 H          12.3923   -2.3100    0.0000 H       1  UNL1        0.0618
     80 H          14.3322   -2.1900    0.0000 H       1  UNL1        0.0620
     81 H          12.6192   -3.4631    0.0000 H       1  UNL1        0.0278
     82 H          12.3923   -4.3100    0.0000 H       1  UNL1        0.0278
     83 H          13.2392   -4.5369    0.0000 H       1  UNL1        0.0278
     84 H          15.1982   -3.6900    0.0000 H       1  UNL1        0.0620
     85 H          14.1244   -5.3100    0.0000 H       1  UNL1        0.0618
     86 H          16.0643   -5.1900    0.0000 H       1  UNL1        0.0622
     87 H          14.3513   -6.4631    0.0000 H       1  UNL1        0.0280
     88 H          14.1244   -7.3100    0.0000 H       1  UNL1        0.0280
     89 H          14.9713   -7.5369    0.0000 H       1  UNL1        0.0280
     90 H          16.9303   -8.3100    0.0000 H       1  UNL1        0.2954
@<TRIPOS>BOND
     1     1    15    1
     2     1    25    1
     3     2    20    1
     4     2    22    1
     5    20     3    1
     6     3    24    1
     7    16     4    1
     8     4    61    1
     9    17     5    1
    10     5    62    1
    11    18     6    1
    12     6    63    1
    13    19     7    1
    14     7    64    1
    15    21     8    1
    16     8    65    1
    17    23     9    1
    18     9    66    1
    19    25    10    1
    20    10    27    1
    21    11    26    1
    22    11    67    1
    23    12    27    2
    24    13    46    1
    25    13    90    1
    26    14    46    2
    27    15    16    1
    28    15    24    1
    29    15    47    1
    30    16    18    1
    31    16    48    1
    32    17    19    1
    33    17    20    1
    34    17    49    1
    35    18    23    1
    36    18    50    1
    37    19    21    1
    38    19    51    1
    39    20    52    1
    40    21    22    1
    41    21    53    1
    42    22    26    1
    43    22    54    1
    44    23    25    1
    45    23    55    1
    46    24    56    1
    47    24    57    1
    48    25    58    1
    49    26    59    1
    50    26    60    1
    51    27    28    1
    52    28    29    1
    53    28    30    2
    54    29    68    1
    55    29    69    1
    56    29    70    1
    57    30    31    1
    58    30    71    1
    59    31    32    2
    60    31    72    1
    61    32    33    1
    62    32    73    1
    63    33    34    1
    64    33    35    2
    65    34    74    1
    66    34    75    1
    67    34    76    1
    68    35    36    1
    69    35    77    1
    70    36    37    2
    71    36    78    1
    72    37    38    1
    73    37    79    1
    74    38    39    2
    75    38    80    1
    76    39    40    1
    77    39    41    1
    78    40    81    1
    79    40    82    1
    80    40    83    1
    81    41    42    2
    82    41    84    1
    83    42    43    1
    84    42    85    1
    85    43    44    2
    86    43    86    1
    87    44    45    1
    88    44    46    1
    89    45    87    1
    90    45    88    1
    91    45    89    1
