@<TRIPOS>MOLECULE
IMPHY003323
 53 55 0 0 0
SMALL
GASTEIGER

@<TRIPOS>ATOM
      1 O           8.6233    0.7639    0.0000 O.3     1  UNL1       -0.4580
      2 O           6.0010    0.1550    0.0000 O.3     1  UNL1       -0.3093
      3 O           5.1350    1.6550    0.0000 O.2     1  UNL1       -0.4709
      4 O           4.2690    0.1550    0.0000 O.3     1  UNL1       -0.3126
      5 O           6.0010   -1.8450    0.0000 O.3     1  UNL1       -0.3841
      6 O           4.2690   -2.8450    0.0000 O.3     1  UNL1       -0.3863
      7 O           2.5369   -0.8450    0.0000 O.3     1  UNL1       -0.3608
      8 O           2.5369   -1.8450    0.0000 O.3     1  UNL1       -0.3837
      9 O           2.5369    1.1550    0.0000 O.3     1  UNL1       -0.3896
     10 O           9.6390    2.1669    0.0000 O.2     1  UNL1       -0.2511
     11 C           6.8671    1.6550    0.0000 C.3     1  UNL1        0.0675
     12 C           7.8133    1.3503    0.0000 C.3     1  UNL1        0.1198
     13 C           6.8671    2.6550    0.0000 C.3     1  UNL1       -0.0075
     14 C           8.3969    2.1550    0.0000 C.3     1  UNL1       -0.0120
     15 C           7.8133    2.9597    0.0000 C.3     1  UNL1       -0.0425
     16 C           6.0010    1.1550    0.0000 C.3     1  UNL1        0.2104
     17 C           7.5059    0.3987    0.0000 C.3     1  UNL1       -0.0243
     18 C           6.0010    3.1550    0.0000 C.2     1  UNL1       -0.0459
     19 C           5.1350   -0.3450    0.0000 C.3     1  UNL1        0.1946
     20 C           5.1350   -1.3450    0.0000 C.3     1  UNL1        0.1344
     21 C           5.1350    2.6550    0.0000 C.2     1  UNL1        0.0842
     22 C           4.2690   -1.8450    0.0000 C.3     1  UNL1        0.1167
     23 C           3.4030   -0.3450    0.0000 C.3     1  UNL1        0.2224
     24 C           3.4030   -1.3450    0.0000 C.3     1  UNL1        0.1393
     25 C           9.5362    1.1722    0.0000 C.2     1  UNL1        0.3045
     26 C           3.4030    0.6550    0.0000 C.3     1  UNL1        0.1007
     27 C          10.3462    0.5858    0.0000 C.3     1  UNL1        0.0333
     28 H           6.9570    0.8098    0.0000 H       1  UNL1        0.0406
     29 H           6.9570    3.5002    0.0000 H       1  UNL1        0.0350
     30 H           8.8578    1.7403    0.0000 H       1  UNL1        0.0304
     31 H           8.8578    2.5697    0.0000 H       1  UNL1        0.0304
     32 H           8.3507    3.2690    0.0000 H       1  UNL1        0.0272
     33 H           7.5622    3.5266    0.0000 H       1  UNL1        0.0272
     34 H           6.7372    0.7300    0.0000 H       1  UNL1        0.1060
     35 H           6.9159    0.5892    0.0000 H       1  UNL1        0.0268
     36 H           7.3153   -0.1913    0.0000 H       1  UNL1        0.0268
     37 H           8.0959    0.2081    0.0000 H       1  UNL1        0.0268
     38 H           6.0010    3.7750    0.0000 H       1  UNL1        0.0605
     39 H           5.1350    0.2750    0.0000 H       1  UNL1        0.0940
     40 H           5.1350   -1.9650    0.0000 H       1  UNL1        0.0671
     41 H           4.5981    2.9650    0.0000 H       1  UNL1        0.1021
     42 H           3.7320   -2.1550    0.0000 H       1  UNL1        0.0649
     43 H           2.8660   -1.0350    0.0000 H       1  UNL1        0.0675
     44 H           4.0135    0.5473    0.0000 H       1  UNL1        0.0612
     45 H           3.6150    1.2376    0.0000 H       1  UNL1        0.0612
     46 H           6.5380   -1.5350    0.0000 H       1  UNL1        0.2101
     47 H           4.8059   -3.1550    0.0000 H       1  UNL1        0.2100
     48 H           2.0000   -0.5350    0.0000 H       1  UNL1        0.2129
     49 H           2.5369   -2.4650    0.0000 H       1  UNL1        0.2101
     50 H           9.9826    0.0836    0.0000 H       1  UNL1        0.0342
     51 H          10.8484    0.2223    0.0000 H       1  UNL1        0.0342
     52 H          10.7097    1.0880    0.0000 H       1  UNL1        0.0342
     53 H           2.5369    1.7750    0.0000 H       1  UNL1        0.2096
@<TRIPOS>BOND
     1     1    12    1
     2     1    25    1
     3     2    16    1
     4    19     2    1
     5     3    16    1
     6     3    21    1
     7     4    19    1
     8     4    23    1
     9    20     5    1
    10     5    46    1
    11    22     6    1
    12     6    47    1
    13    23     7    1
    14     7    48    1
    15    24     8    1
    16     8    49    1
    17     9    26    1
    18     9    53    1
    19    10    25    2
    20    11    12    1
    21    11    13    1
    22    11    16    1
    23    11    28    1
    24    12    14    1
    25    12    17    1
    26    13    15    1
    27    13    18    1
    28    13    29    1
    29    14    15    1
    30    14    30    1
    31    14    31    1
    32    15    32    1
    33    15    33    1
    34    16    34    1
    35    17    35    1
    36    17    36    1
    37    17    37    1
    38    18    21    2
    39    18    38    1
    40    19    20    1
    41    19    39    1
    42    20    22    1
    43    20    40    1
    44    21    41    1
    45    22    24    1
    46    22    42    1
    47    23    24    1
    48    23    26    1
    49    24    43    1
    50    25    27    1
    51    26    44    1
    52    26    45    1
    53    27    50    1
    54    27    51    1
    55    27    52    1
