@<TRIPOS>MOLECULE
IMPHY002208
 114 121 0 0 0
SMALL
GASTEIGER

@<TRIPOS>ATOM
      1 O          12.8895    1.4069    0.0000 O.3     1  UNL1       -0.3448
      2 O          12.7476   -0.5735    0.0000 O.3     1  UNL1       -0.3480
      3 O           6.8671    1.2729    0.0000 O.3     1  UNL1       -0.3445
      4 O           5.0839    4.4172    0.0000 O.3     1  UNL1       -0.3914
      5 O           5.1350    1.2729    0.0000 O.3     1  UNL1       -0.3405
      6 O           6.8671   -0.7271    0.0000 O.3     1  UNL1       -0.3378
      7 O           5.1350   -1.7271    0.0000 O.3     1  UNL1       -0.3864
      8 O           3.4030   -0.7271    0.0000 O.3     1  UNL1       -0.3865
      9 O           6.0010   -2.2271    0.0000 O.3     1  UNL1       -0.3431
     10 O           2.5369    0.7729    0.0000 O.3     1  UNL1       -0.3924
     11 O           8.5991   -1.7271    0.0000 O.3     1  UNL1       -0.3841
     12 O           8.5991   -3.7271    0.0000 O.3     1  UNL1       -0.3864
     13 O           6.8671   -4.7271    0.0000 O.3     1  UNL1       -0.3866
     14 C          10.4171    1.2615    0.0000 C.3     1  UNL1       -0.0233
     15 C          10.4364    2.2613    0.0000 C.3     1  UNL1       -0.0295
     16 C          11.3573    0.9386    0.0000 C.3     1  UNL1       -0.0015
     17 C           9.5802    2.7779    0.0000 C.3     1  UNL1       -0.0305
     18 C          11.9563    1.7319    0.0000 C.3     1  UNL1        0.0660
     19 C           8.7047    2.2947    0.0000 C.3     1  UNL1       -0.0262
     20 C          11.3883    2.5478    0.0000 C.3     1  UNL1       -0.0226
     21 C           9.5416    0.7783    0.0000 C.3     1  UNL1       -0.0467
     22 C          11.9254    0.1300    0.0000 C.3     1  UNL1        0.0160
     23 C           8.6854    1.2949    0.0000 C.3     1  UNL1       -0.0486
     24 C           7.8046    2.8190    0.0000 C.3     1  UNL1        0.0184
     25 C          12.8705    0.4189    0.0000 C.3     1  UNL1        0.1732
     26 C          10.3978    0.2617    0.0000 C.3     1  UNL1       -0.0590
     27 C           9.6163    3.8189    0.0000 C.3     1  UNL1       -0.0311
     28 C           7.8166    3.8606    0.0000 C.2     1  UNL1       -0.0624
     29 C           6.8671    2.2729    0.0000 C.3     1  UNL1        0.0734
     30 C          11.6006   -0.8157    0.0000 C.3     1  UNL1       -0.0572
     31 C           8.7286    4.3639    0.0000 C.2     1  UNL1       -0.0838
     32 C          13.7913    0.8087    0.0000 C.3     1  UNL1        0.0020
     33 C           7.7930    1.8190    0.0000 C.3     1  UNL1       -0.0532
     34 C           6.8920    4.4282    0.0000 C.3     1  UNL1       -0.0049
     35 C           5.9295    2.8190    0.0000 C.3     1  UNL1        0.0007
     36 C           5.9421    3.9039    0.0000 C.3     1  UNL1        0.0613
     37 C          14.5894    0.2062    0.0000 C.3     1  UNL1       -0.0435
     38 C          14.4666   -0.7863    0.0000 C.3     1  UNL1       -0.0201
     39 C          13.5457   -1.1761    0.0000 C.3     1  UNL1        0.0535
     40 C           6.0010    0.7729    0.0000 C.3     1  UNL1        0.1886
     41 C          15.2646   -1.3888    0.0000 C.3     1  UNL1       -0.0603
     42 C           6.0010   -0.2271    0.0000 C.3     1  UNL1        0.1406
     43 C           5.1350   -0.7271    0.0000 C.3     1  UNL1        0.1144
     44 C           4.2690    0.7729    0.0000 C.3     1  UNL1        0.1130
     45 C           4.2690   -0.2271    0.0000 C.3     1  UNL1        0.1119
     46 C           3.4030    1.2729    0.0000 C.3     1  UNL1        0.0730
     47 C           6.8671   -1.7271    0.0000 C.3     1  UNL1        0.1884
     48 C           7.7331   -2.2271    0.0000 C.3     1  UNL1        0.1341
     49 C           7.7331   -3.2271    0.0000 C.3     1  UNL1        0.1140
     50 C           6.0010   -3.2271    0.0000 C.3     1  UNL1        0.0873
     51 C           6.8671   -3.7271    0.0000 C.3     1  UNL1        0.1095
     52 C           5.1350   -3.7271    0.0000 C.3     1  UNL1       -0.0361
     53 H          10.5426    3.1047    0.0000 H       1  UNL1        0.0310
     54 H          10.8466    0.2591    0.0000 H       1  UNL1        0.0335
     55 H          10.3275    3.1829    0.0000 H       1  UNL1        0.0310
     56 H          12.4700    2.4092    0.0000 H       1  UNL1        0.0600
     57 H           9.4325    1.8556    0.0000 H       1  UNL1        0.0313
     58 H          11.9316    2.8466    0.0000 H       1  UNL1        0.0293
     59 H          11.1482    3.1194    0.0000 H       1  UNL1        0.0293
     60 H           9.1340    0.3111    0.0000 H       1  UNL1        0.0271
     61 H           9.9309    0.2957    0.0000 H       1  UNL1        0.0271
     62 H          12.3563   -0.3158    0.0000 H       1  UNL1        0.0354
     63 H           8.0770    1.4143    0.0000 H       1  UNL1        0.0268
     64 H           8.4622    0.7165    0.0000 H       1  UNL1        0.0268
     65 H           9.7780    0.2736    0.0000 H       1  UNL1        0.0235
     66 H          10.3859   -0.3582    0.0000 H       1  UNL1        0.0235
     67 H          11.0177    0.2497    0.0000 H       1  UNL1        0.0235
     68 H          10.2231    3.6917    0.0000 H       1  UNL1        0.0310
     69 H           9.8455    4.3950    0.0000 H       1  UNL1        0.0310
     70 H           7.4046    1.9639    0.0000 H       1  UNL1        0.0606
     71 H          11.0142   -0.6143    0.0000 H       1  UNL1        0.0234
     72 H          11.3992   -1.4021    0.0000 H       1  UNL1        0.0234
     73 H          12.1870   -1.0171    0.0000 H       1  UNL1        0.0234
     74 H           8.7429    4.9837    0.0000 H       1  UNL1        0.0572
     75 H          14.2452    1.2311    0.0000 H       1  UNL1        0.0317
     76 H          13.4542    1.3290    0.0000 H       1  UNL1        0.0317
     77 H           7.1731    1.8262    0.0000 H       1  UNL1        0.0239
     78 H           7.7859    1.1991    0.0000 H       1  UNL1        0.0239
     79 H           8.4130    1.8119    0.0000 H       1  UNL1        0.0239
     80 H           7.3020    4.8933    0.0000 H       1  UNL1        0.0335
     81 H           6.5039    4.9117    0.0000 H       1  UNL1        0.0335
     82 H           5.3199    2.9321    0.0000 H       1  UNL1        0.0315
     83 H           5.7137    2.2378    0.0000 H       1  UNL1        0.0315
     84 H           5.4010    3.6012    0.0000 H       1  UNL1        0.0597
     85 H          15.1821    0.0243    0.0000 H       1  UNL1        0.0270
     86 H          14.8714    0.7583    0.0000 H       1  UNL1        0.0270
     87 H          14.3904   -1.4016    0.0000 H       1  UNL1        0.0320
     88 H          13.0919   -1.5985    0.0000 H       1  UNL1        0.0563
     89 H          13.8829   -1.6964    0.0000 H       1  UNL1        0.0563
     90 H           6.0010    1.3929    0.0000 H       1  UNL1        0.0938
     91 H          14.8911   -1.8836    0.0000 H       1  UNL1        0.0233
     92 H          15.7594   -1.7624    0.0000 H       1  UNL1        0.0233
     93 H          15.6382   -0.8941    0.0000 H       1  UNL1        0.0233
     94 H           5.0934    5.0371    0.0000 H       1  UNL1        0.2098
     95 H           6.0010   -0.8471    0.0000 H       1  UNL1        0.0675
     96 H           4.5981   -1.0371    0.0000 H       1  UNL1        0.0648
     97 H           4.2690    1.3929    0.0000 H       1  UNL1        0.0647
     98 H           3.7320    0.0829    0.0000 H       1  UNL1        0.0647
     99 H           3.8015    1.7478    0.0000 H       1  UNL1        0.0584
    100 H           3.0044    1.7478    0.0000 H       1  UNL1        0.0584
    101 H           7.4040   -1.4171    0.0000 H       1  UNL1        0.0938
    102 H           4.5981   -2.0371    0.0000 H       1  UNL1        0.2100
    103 H           3.4030   -1.3471    0.0000 H       1  UNL1        0.2100
    104 H           8.2700   -2.5371    0.0000 H       1  UNL1        0.0671
    105 H           7.7331   -3.8471    0.0000 H       1  UNL1        0.0648
    106 H           2.0000    1.0829    0.0000 H       1  UNL1        0.2095
    107 H           5.4641   -2.9171    0.0000 H       1  UNL1        0.0621
    108 H           6.3301   -4.0371    0.0000 H       1  UNL1        0.0646
    109 H           9.1360   -2.0371    0.0000 H       1  UNL1        0.2101
    110 H           4.8250   -3.1902    0.0000 H       1  UNL1        0.0255
    111 H           4.5981   -4.0371    0.0000 H       1  UNL1        0.0255
    112 H           5.4450   -4.2641    0.0000 H       1  UNL1        0.0255
    113 H           8.5991   -4.3471    0.0000 H       1  UNL1        0.2100
    114 H           6.3301   -5.0371    0.0000 H       1  UNL1        0.2100
@<TRIPOS>BOND
     1     1    18    1
     2    25     1    1
     3     2    25    1
     4     2    39    1
     5    29     3    1
     6    40     3    1
     7    36     4    1
     8     4    94    1
     9     5    40    1
    10     5    44    1
    11    42     6    1
    12    47     6    1
    13    43     7    1
    14     7   102    1
    15    45     8    1
    16     8   103    1
    17     9    47    1
    18     9    50    1
    19    10    46    1
    20    10   106    1
    21    48    11    1
    22    11   109    1
    23    49    12    1
    24    12   113    1
    25    51    13    1
    26    13   114    1
    27    14    15    1
    28    14    16    1
    29    14    21    1
    30    14    26    1
    31    15    17    1
    32    15    20    1
    33    15    53    1
    34    16    18    1
    35    16    22    1
    36    16    54    1
    37    17    19    1
    38    17    27    1
    39    17    55    1
    40    18    20    1
    41    18    56    1
    42    19    23    1
    43    19    24    1
    44    19    57    1
    45    20    58    1
    46    20    59    1
    47    21    23    1
    48    21    60    1
    49    21    61    1
    50    22    25    1
    51    22    30    1
    52    22    62    1
    53    23    63    1
    54    23    64    1
    55    24    28    1
    56    24    29    1
    57    24    33    1
    58    25    32    1
    59    26    65    1
    60    26    66    1
    61    26    67    1
    62    27    31    1
    63    27    68    1
    64    27    69    1
    65    28    31    2
    66    28    34    1
    67    29    35    1
    68    29    70    1
    69    30    71    1
    70    30    72    1
    71    30    73    1
    72    31    74    1
    73    32    37    1
    74    32    75    1
    75    32    76    1
    76    33    77    1
    77    33    78    1
    78    33    79    1
    79    34    36    1
    80    34    80    1
    81    34    81    1
    82    35    36    1
    83    35    82    1
    84    35    83    1
    85    36    84    1
    86    37    38    1
    87    37    85    1
    88    37    86    1
    89    38    39    1
    90    38    41    1
    91    38    87    1
    92    39    88    1
    93    39    89    1
    94    40    42    1
    95    40    90    1
    96    41    91    1
    97    41    92    1
    98    41    93    1
    99    42    43    1
   100    42    95    1
   101    43    45    1
   102    43    96    1
   103    44    45    1
   104    44    46    1
   105    44    97    1
   106    45    98    1
   107    46    99    1
   108    46   100    1
   109    47    48    1
   110    47   101    1
   111    48    49    1
   112    48   104    1
   113    49    51    1
   114    49   105    1
   115    50    51    1
   116    50    52    1
   117    50   107    1
   118    51   108    1
   119    52   110    1
   120    52   111    1
   121    52   112    1
