@<TRIPOS>MOLECULE
IMPHY011468
 80 84 0 0 0
SMALL
GASTEIGER

@<TRIPOS>ATOM
      1 O           7.4149   -2.6365    0.0000 O.3     1  UNL1       -0.3912
      2 O           2.0000   -2.6574    0.0000 O.2     1  UNL1       -0.2968
      3 O          10.9251    0.4291    0.0000 O.3     1  UNL1       -0.4802
      4 O          10.0707   -1.0775    0.0000 O.2     1  UNL1       -0.2504
      5 C           6.5271   -1.1050    0.0000 C.3     1  UNL1        0.0066
      6 C           5.6610   -0.6051    0.0000 C.3     1  UNL1       -0.0234
      7 C           7.3931   -0.6051    0.0000 C.3     1  UNL1       -0.0027
      8 C           4.7510   -1.1119    0.0000 C.3     1  UNL1       -0.0242
      9 C           4.7430   -2.1535    0.0000 C.3     1  UNL1       -0.0212
     10 C           6.5431   -2.1466    0.0000 C.3     1  UNL1        0.0620
     11 C           7.3931    0.3949    0.0000 C.2     1  UNL1       -0.0625
     12 C           8.2870    0.9296    0.0000 C.3     1  UNL1       -0.0008
     13 C           5.6451   -2.6743    0.0000 C.3     1  UNL1       -0.0221
     14 C           8.2870   -1.1397    0.0000 C.3     1  UNL1       -0.0423
     15 C           9.1931    0.4158    0.0000 C.3     1  UNL1        0.0743
     16 C           5.6610    0.3949    0.0000 C.3     1  UNL1       -0.0305
     17 C           3.8076   -2.7032    0.0000 C.3     1  UNL1        0.0268
     18 C           3.8242   -0.5478    0.0000 C.3     1  UNL1       -0.0404
     19 C           9.1931   -0.6259    0.0000 C.3     1  UNL1       -0.0359
     20 C           7.1698   -1.8711    0.0000 C.3     1  UNL1       -0.0561
     21 C           6.5271    0.8949    0.0000 C.2     1  UNL1       -0.0836
     22 C           8.2619    2.0143    0.0000 C.3     1  UNL1       -0.0337
     23 C           7.7352   -1.5447    0.0000 C.3     1  UNL1       -0.0552
     24 C           4.7587   -0.1119    0.0000 C.3     1  UNL1       -0.0590
     25 C          10.1369    0.9510    0.0000 C.3     1  UNL1       -0.0364
     26 C           2.8763   -1.0758    0.0000 C.3     1  UNL1        0.0069
     27 C           9.1931    2.5712    0.0000 C.3     1  UNL1       -0.0407
     28 C           2.8680   -2.1607    0.0000 C.2     1  UNL1        0.1392
     29 C          10.1369    2.0360    0.0000 C.3     1  UNL1       -0.0492
     30 C           3.3109   -3.5712    0.0000 C.3     1  UNL1       -0.0528
     31 C           4.3109   -3.5673    0.0000 C.3     1  UNL1       -0.0528
     32 C          10.0629   -0.0775    0.0000 C.2     1  UNL1        0.3115
     33 C           7.3864    2.4975    0.0000 C.3     1  UNL1       -0.0616
     34 C           9.1815    3.5712    0.0000 C.3     1  UNL1       -0.0622
     35 H           6.1980   -0.2951    0.0000 H       1  UNL1        0.0315
     36 H           4.7454   -2.7735    0.0000 H       1  UNL1        0.0316
     37 H           6.5491   -2.7665    0.0000 H       1  UNL1        0.0599
     38 H           7.5428    1.3404    0.0000 H       1  UNL1        0.0359
     39 H           5.2478   -3.1503    0.0000 H       1  UNL1        0.0293
     40 H           6.0460   -3.1472    0.0000 H       1  UNL1        0.0293
     41 H           7.8824   -1.6095    0.0000 H       1  UNL1        0.0274
     42 H           8.6806   -1.6187    0.0000 H       1  UNL1        0.0274
     43 H           5.4490    0.9776    0.0000 H       1  UNL1        0.0310
     44 H           5.0504    0.2873    0.0000 H       1  UNL1        0.0310
     45 H           4.2324   -0.0812    0.0000 H       1  UNL1        0.0275
     46 H           3.4343   -0.0658    0.0000 H       1  UNL1        0.0275
     47 H           9.4022   -1.2096    0.0000 H       1  UNL1        0.0276
     48 H           9.8040   -0.5198    0.0000 H       1  UNL1        0.0276
     49 H           6.6949   -2.2696    0.0000 H       1  UNL1        0.0236
     50 H           7.5684   -2.3460    0.0000 H       1  UNL1        0.0236
     51 H           7.6448   -1.4726    0.0000 H       1  UNL1        0.0236
     52 H           6.5271    1.5150    0.0000 H       1  UNL1        0.0572
     53 H           7.7317    1.6930    0.0000 H       1  UNL1        0.0307
     54 H           7.1526   -1.7568    0.0000 H       1  UNL1        0.0238
     55 H           7.9473   -2.1273    0.0000 H       1  UNL1        0.0238
     56 H           8.3178   -1.3326    0.0000 H       1  UNL1        0.0238
     57 H           5.3787   -0.1167    0.0000 H       1  UNL1        0.0235
     58 H           4.7635    0.5081    0.0000 H       1  UNL1        0.0235
     59 H           4.1388   -0.1071    0.0000 H       1  UNL1        0.0235
     60 H          10.3459    0.3673    0.0000 H       1  UNL1        0.0276
     61 H          10.7477    1.0571    0.0000 H       1  UNL1        0.0276
     62 H           2.6718   -0.4905    0.0000 H       1  UNL1        0.0342
     63 H           2.2647   -1.1771    0.0000 H       1  UNL1        0.0342
     64 H           9.7270    2.8864    0.0000 H       1  UNL1        0.0301
     65 H          10.7477    1.9299    0.0000 H       1  UNL1        0.0268
     66 H          10.3459    2.6197    0.0000 H       1  UNL1        0.0268
     67 H           2.7728   -3.2632    0.0000 H       1  UNL1        0.0239
     68 H           3.0030   -4.1093    0.0000 H       1  UNL1        0.0239
     69 H           3.8490   -3.8791    0.0000 H       1  UNL1        0.0239
     70 H           3.7752   -3.8794    0.0000 H       1  UNL1        0.0239
     71 H           4.6230   -4.1030    0.0000 H       1  UNL1        0.0239
     72 H           4.8466   -3.2553    0.0000 H       1  UNL1        0.0239
     73 H           7.4220   -3.2565    0.0000 H       1  UNL1        0.2098
     74 H           7.6860    3.0403    0.0000 H       1  UNL1        0.0233
     75 H           6.8436    2.7971    0.0000 H       1  UNL1        0.0233
     76 H           7.0868    1.9547    0.0000 H       1  UNL1        0.0233
     77 H           9.8015    3.5783    0.0000 H       1  UNL1        0.0233
     78 H           9.1744    4.1911    0.0000 H       1  UNL1        0.0233
     79 H           8.5616    3.5640    0.0000 H       1  UNL1        0.0233
     80 H          11.4644    0.1233    0.0000 H       1  UNL1        0.2951
@<TRIPOS>BOND
     1    10     1    1
     2     1    73    1
     3     2    28    2
     4     3    32    1
     5     3    80    1
     6     4    32    2
     7     5     6    1
     8     5     7    1
     9     5    10    1
    10     5    20    1
    11     6     8    1
    12     6    16    1
    13     6    35    1
    14     7    11    1
    15     7    14    1
    16     7    23    1
    17     8     9    1
    18     8    18    1
    19     8    24    1
    20     9    13    1
    21     9    17    1
    22     9    36    1
    23    10    13    1
    24    10    37    1
    25    11    12    1
    26    11    21    2
    27    12    15    1
    28    12    22    1
    29    12    38    1
    30    13    39    1
    31    13    40    1
    32    14    19    1
    33    14    41    1
    34    14    42    1
    35    15    19    1
    36    15    25    1
    37    15    32    1
    38    16    21    1
    39    16    43    1
    40    16    44    1
    41    17    28    1
    42    17    30    1
    43    17    31    1
    44    18    26    1
    45    18    45    1
    46    18    46    1
    47    19    47    1
    48    19    48    1
    49    20    49    1
    50    20    50    1
    51    20    51    1
    52    21    52    1
    53    22    27    1
    54    22    33    1
    55    22    53    1
    56    23    54    1
    57    23    55    1
    58    23    56    1
    59    24    57    1
    60    24    58    1
    61    24    59    1
    62    25    29    1
    63    25    60    1
    64    25    61    1
    65    26    28    1
    66    26    62    1
    67    26    63    1
    68    27    29    1
    69    27    34    1
    70    27    64    1
    71    29    65    1
    72    29    66    1
    73    30    67    1
    74    30    68    1
    75    30    69    1
    76    31    70    1
    77    31    71    1
    78    31    72    1
    79    33    74    1
    80    33    75    1
    81    33    76    1
    82    34    77    1
    83    34    78    1
    84    34    79    1
