@<TRIPOS>MOLECULE
IMPHY011478
 42 44 0 0 0
SMALL
GASTEIGER

@<TRIPOS>ATOM
      1 O           5.4232   -1.2812    0.0000 O.3     1  UNL1       -0.3909
      2 C           2.9944    0.2559    0.0000 C.3     1  UNL1       -0.0211
      3 C           2.9837   -0.6058    0.0000 C.3     1  UNL1       -0.0002
      4 C           3.8307   -0.1469    0.0000 C.3     1  UNL1       -0.0294
      5 C           4.6671    0.2559    0.0000 C.3     1  UNL1       -0.0060
      6 C           4.6857   -0.6058    0.0000 C.3     1  UNL1        0.0647
      7 C           3.4517   -1.5206    0.0000 C.3     1  UNL1       -0.0445
      8 C           4.3240   -1.1163    0.0000 C.3     1  UNL1       -0.0488
      9 C           4.8736    1.1608    0.0000 C.3     1  UNL1       -0.0294
     10 C           2.7879    1.1608    0.0000 C.3     1  UNL1       -0.0468
     11 C           2.0000    0.1501    0.0000 C.3     1  UNL1       -0.0587
     12 C           2.0101   -0.8340    0.0000 C.3     1  UNL1       -0.0567
     13 C           4.2949    1.8865    0.0000 C.3     1  UNL1       -0.0475
     14 C           3.3666    1.8865    0.0000 C.3     1  UNL1       -0.0520
     15 C           5.6067    1.8410    0.0000 C.3     1  UNL1       -0.0595
     16 C           5.8624    1.0118    0.0000 C.3     1  UNL1       -0.0595
     17 H           3.6483   -0.9771    0.0000 H       1  UNL1        0.0310
     18 H           5.4911    0.4643    0.0000 H       1  UNL1        0.0334
     19 H           5.2972   -0.5033    0.0000 H       1  UNL1        0.0602
     20 H           2.8962   -1.7958    0.0000 H       1  UNL1        0.0272
     21 H           3.7197   -2.0797    0.0000 H       1  UNL1        0.0272
     22 H           4.5916   -1.6756    0.0000 H       1  UNL1        0.0268
     23 H           4.8800   -0.8420    0.0000 H       1  UNL1        0.0268
     24 H           2.4013    1.6456    0.0000 H       1  UNL1        0.0271
     25 H           2.2292    0.8918    0.0000 H       1  UNL1        0.0271
     26 H           1.9344    0.7666    0.0000 H       1  UNL1        0.0235
     27 H           1.3835    0.0845    0.0000 H       1  UNL1        0.0235
     28 H           2.0656   -0.4664    0.0000 H       1  UNL1        0.0235
     29 H           1.8686   -0.2304    0.0000 H       1  UNL1        0.0236
     30 H           1.4065   -0.9755    0.0000 H       1  UNL1        0.0236
     31 H           2.1516   -1.4377    0.0000 H       1  UNL1        0.0236
     32 H           4.8535    2.1555    0.0000 H       1  UNL1        0.0271
     33 H           4.1569    2.4910    0.0000 H       1  UNL1        0.0271
     34 H           3.5046    2.4910    0.0000 H       1  UNL1        0.0266
     35 H           2.8080    2.1555    0.0000 H       1  UNL1        0.0266
     36 H           6.0284    1.3865    0.0000 H       1  UNL1        0.0235
     37 H           6.0612    2.2627    0.0000 H       1  UNL1        0.0235
     38 H           5.1850    2.2955    0.0000 H       1  UNL1        0.0235
     39 H           5.7700    0.3987    0.0000 H       1  UNL1        0.0235
     40 H           6.4755    0.9193    0.0000 H       1  UNL1        0.0235
     41 H           5.9549    1.6248    0.0000 H       1  UNL1        0.0235
     42 H           5.2892   -1.8865    0.0000 H       1  UNL1        0.2098
@<TRIPOS>BOND
     1     6     1    1
     2     1    42    1
     3     2     3    1
     4     2     4    1
     5     2    10    1
     6     2    11    1
     7     3     6    1
     8     3     7    1
     9     3    12    1
    10     4     5    1
    11     4     8    1
    12     4    17    1
    13     5     6    1
    14     5     9    1
    15     5    18    1
    16     6    19    1
    17     7     8    1
    18     7    20    1
    19     7    21    1
    20     8    22    1
    21     8    23    1
    22     9    13    1
    23     9    15    1
    24     9    16    1
    25    10    14    1
    26    10    24    1
    27    10    25    1
    28    11    26    1
    29    11    27    1
    30    11    28    1
    31    12    29    1
    32    12    30    1
    33    12    31    1
    34    13    14    1
    35    13    32    1
    36    13    33    1
    37    14    34    1
    38    14    35    1
    39    15    36    1
    40    15    37    1
    41    15    38    1
    42    16    39    1
    43    16    40    1
    44    16    41    1
