@<TRIPOS>MOLECULE
IMPHY005809
 81 86 0 0 0
SMALL
GASTEIGER

@<TRIPOS>ATOM
      1 O           3.2983    0.8626    0.0000 O.3     1  UNL1       -0.4604
      2 O          13.6835   -2.1994    0.0000 O.3     1  UNL1       -0.3912
      3 O          10.3806    1.3583    0.0000 O.2     1  UNL1       -0.2923
      4 O           6.5345   -1.6285    0.0000 O.3     1  UNL1       -0.4673
      5 O           7.7522   -2.3475    0.0000 O.2     1  UNL1       -0.2498
      6 O           2.1735    2.3285    0.0000 O.2     1  UNL1       -0.2502
      7 C           8.7426   -0.8989    0.0000 C.3     1  UNL1       -0.0023
      8 C          10.6654   -0.7719    0.0000 C.3     1  UNL1       -0.0182
      9 C           7.7711   -0.4157    0.0000 C.3     1  UNL1        0.0953
     10 C           9.6421   -0.2921    0.0000 C.3     1  UNL1        0.0339
     11 C          10.7530   -1.8986    0.0000 C.3     1  UNL1       -0.0274
     12 C           5.9183    0.5057    0.0000 C.3     1  UNL1        0.0116
     13 C           6.7473    1.0649    0.0000 C.3     1  UNL1       -0.0087
     14 C           8.8041   -2.0274    0.0000 C.3     1  UNL1       -0.0454
     15 C           7.6905    0.6228    0.0000 C.2     1  UNL1       -0.0453
     16 C           9.8160   -2.5306    0.0000 C.3     1  UNL1       -0.0486
     17 C          11.8070   -2.4228    0.0000 C.3     1  UNL1       -0.0056
     18 C           6.9076   -0.9982    0.0000 C.3     1  UNL1       -0.0323
     19 C           5.9749   -0.5344    0.0000 C.3     1  UNL1       -0.0424
     20 C          11.6259   -0.0912    0.0000 C.3     1  UNL1       -0.0443
     21 C           4.6973    1.3714    0.0000 C.3     1  UNL1        0.1100
     22 C           6.4717    2.0262    0.0000 C.3     1  UNL1       -0.0302
     23 C           4.4384    2.3373    0.0000 C.3     1  UNL1        0.0689
     24 C           9.5581    0.7896    0.0000 C.2     1  UNL1        0.1602
     25 C           8.1548   -1.7079    0.0000 C.3     1  UNL1       -0.0576
     26 C          12.7830   -1.7645    0.0000 C.3     1  UNL1        0.0606
     27 C           5.1751    3.3199    0.0000 C.3     1  UNL1        0.0004
     28 C          10.5880    0.2251    0.0000 C.3     1  UNL1       -0.0586
     29 C          12.6918   -0.5909    0.0000 C.3     1  UNL1       -0.0258
     30 C           8.5757    1.2501    0.0000 C.2     1  UNL1       -0.0183
     31 C           7.5028   -1.3791    0.0000 C.2     1  UNL1        0.3177
     32 C           5.0893   -0.0535    0.0000 C.3     1  UNL1       -0.0556
     33 C          12.3630   -3.2540    0.0000 C.3     1  UNL1       -0.0572
     34 C          11.3652   -3.3199    0.0000 C.3     1  UNL1       -0.0572
     35 C           3.0395    1.8285    0.0000 C.2     1  UNL1        0.3135
     36 C           4.1796    3.3032    0.0000 C.3     1  UNL1       -0.0493
     37 C           6.2663   -2.5918    0.0000 C.3     1  UNL1        0.0817
     38 H           8.8767    0.0775    0.0000 H       1  UNL1        0.0392
     39 H          10.8090   -2.7468    0.0000 H       1  UNL1        0.0312
     40 H           7.4520    1.5402    0.0000 H       1  UNL1        0.0353
     41 H           8.6271   -2.6216    0.0000 H       1  UNL1        0.0271
     42 H           8.1884   -1.9546    0.0000 H       1  UNL1        0.0271
     43 H          10.2456   -2.9777    0.0000 H       1  UNL1        0.0268
     44 H           9.4490   -3.0303    0.0000 H       1  UNL1        0.0268
     45 H           7.3371   -1.4453    0.0000 H       1  UNL1        0.0279
     46 H           6.5406   -1.4979    0.0000 H       1  UNL1        0.0279
     47 H           5.7979   -1.1286    0.0000 H       1  UNL1        0.0272
     48 H           5.3592   -0.4617    0.0000 H       1  UNL1        0.0272
     49 H          11.1861    0.3459    0.0000 H       1  UNL1        0.0272
     50 H          11.9813    0.4169    0.0000 H       1  UNL1        0.0272
     51 H           4.9173    0.5503    0.0000 H       1  UNL1        0.0740
     52 H           6.4768    2.6462    0.0000 H       1  UNL1        0.0282
     53 H           7.0860    2.1100    0.0000 H       1  UNL1        0.0282
     54 H           8.6564   -2.0723    0.0000 H       1  UNL1        0.0236
     55 H           7.7904   -2.2095    0.0000 H       1  UNL1        0.0236
     56 H           7.6533   -1.3434    0.0000 H       1  UNL1        0.0236
     57 H          12.8274   -2.3829    0.0000 H       1  UNL1        0.0599
     58 H           4.8573    3.8523    0.0000 H       1  UNL1        0.0311
     59 H           5.7882    3.4119    0.0000 H       1  UNL1        0.0311
     60 H           9.9698    0.1771    0.0000 H       1  UNL1        0.0235
     61 H          10.5400    0.8433    0.0000 H       1  UNL1        0.0235
     62 H          11.2061    0.2732    0.0000 H       1  UNL1        0.0235
     63 H          12.8550    0.0073    0.0000 H       1  UNL1        0.0290
     64 H          13.3090   -0.6493    0.0000 H       1  UNL1        0.0290
     65 H           8.5205    1.8677    0.0000 H       1  UNL1        0.0652
     66 H           5.4360   -0.5675    0.0000 H       1  UNL1        0.0236
     67 H           4.5752   -0.4002    0.0000 H       1  UNL1        0.0236
     68 H           4.7426    0.4605    0.0000 H       1  UNL1        0.0236
     69 H          11.9214   -3.5938    0.0000 H       1  UNL1        0.0236
     70 H          11.0913   -3.8761    0.0000 H       1  UNL1        0.0236
     71 H          10.8090   -3.0460    0.0000 H       1  UNL1        0.0236
     72 H          12.8784   -2.9093    0.0000 H       1  UNL1        0.0236
     73 H          12.7077   -3.7693    0.0000 H       1  UNL1        0.0236
     74 H          11.8477   -3.5987    0.0000 H       1  UNL1        0.0236
     75 H           3.5808    3.1428    0.0000 H       1  UNL1        0.0240
     76 H           4.0192    3.9021    0.0000 H       1  UNL1        0.0240
     77 H           4.7785    3.4637    0.0000 H       1  UNL1        0.0240
     78 H          14.1961   -1.8508    0.0000 H       1  UNL1        0.2098
     79 H           6.8636   -2.7581    0.0000 H       1  UNL1        0.0661
     80 H           6.1000   -3.1891    0.0000 H       1  UNL1        0.0661
     81 H           5.6690   -2.4255    0.0000 H       1  UNL1        0.0661
@<TRIPOS>BOND
     1     1    21    1
     2     1    35    1
     3    26     2    1
     4     2    78    1
     5     3    24    2
     6     4    31    1
     7     4    37    1
     8     5    31    2
     9     6    35    2
    10     7     9    1
    11     7    10    1
    12     7    14    1
    13     7    25    1
    14     8    10    1
    15     8    11    1
    16     8    20    1
    17     8    28    1
    18     9    15    1
    19     9    18    1
    20     9    31    1
    21    10    24    1
    22    10    38    1
    23    11    16    1
    24    11    17    1
    25    11    39    1
    26    12    13    1
    27    12    19    1
    28    12    21    1
    29    12    32    1
    30    13    15    1
    31    13    22    1
    32    13    40    1
    33    14    16    1
    34    14    41    1
    35    14    42    1
    36    15    30    2
    37    16    43    1
    38    16    44    1
    39    17    26    1
    40    17    33    1
    41    17    34    1
    42    18    19    1
    43    18    45    1
    44    18    46    1
    45    19    47    1
    46    19    48    1
    47    20    29    1
    48    20    49    1
    49    20    50    1
    50    21    27    1
    51    21    51    1
    52    22    23    1
    53    22    52    1
    54    22    53    1
    55    23    27    1
    56    23    35    1
    57    23    36    1
    58    24    30    1
    59    25    54    1
    60    25    55    1
    61    25    56    1
    62    26    29    1
    63    26    57    1
    64    27    58    1
    65    27    59    1
    66    28    60    1
    67    28    61    1
    68    28    62    1
    69    29    63    1
    70    29    64    1
    71    30    65    1
    72    32    66    1
    73    32    67    1
    74    32    68    1
    75    33    72    1
    76    33    73    1
    77    33    74    1
    78    34    69    1
    79    34    70    1
    80    34    71    1
    81    36    75    1
    82    36    76    1
    83    36    77    1
    84    37    79    1
    85    37    80    1
    86    37    81    1
