@<TRIPOS>MOLECULE
IMPHY006128
 44 43 0 0 0
SMALL
GASTEIGER

@<TRIPOS>ATOM
      1 O          14.9904   -0.2500    0.0000 O.3     1  UNL1       -0.3950
      2 C           8.0622   -0.2500    0.0000 C.3     1  UNL1       -0.0462
      3 C           8.9282    0.2500    0.0000 C.3     1  UNL1       -0.0345
      4 C          12.3923    0.2500    0.0000 C.3     1  UNL1       -0.0475
      5 C           7.1962    0.2500    0.0000 C.3     1  UNL1       -0.0345
      6 C          11.5263   -0.2500    0.0000 C.3     1  UNL1       -0.0347
      7 C           3.7320    0.2500    0.0000 C.3     1  UNL1       -0.0499
      8 C           4.5981   -0.2500    0.0000 C.3     1  UNL1       -0.0348
      9 C          13.2583   -0.2500    0.0000 C.3     1  UNL1       -0.0294
     10 C           9.7942   -0.2500    0.0000 C.2     1  UNL1       -0.0879
     11 C          10.6603    0.2500    0.0000 C.2     1  UNL1       -0.0879
     12 C           2.8660   -0.2500    0.0000 C.3     1  UNL1       -0.0556
     13 C           6.3301   -0.2500    0.0000 C.2     1  UNL1       -0.0879
     14 C           5.4641    0.2500    0.0000 C.2     1  UNL1       -0.0879
     15 C          14.1244    0.2500    0.0000 C.3     1  UNL1        0.0442
     16 C           2.0000    0.2500    0.0000 C.3     1  UNL1       -0.0653
     17 H           7.6636   -0.7249    0.0000 H       1  UNL1        0.0271
     18 H           8.4607   -0.7249    0.0000 H       1  UNL1        0.0271
     19 H          12.7908    0.7249    0.0000 H       1  UNL1        0.0269
     20 H          11.9938    0.7249    0.0000 H       1  UNL1        0.0269
     21 H           9.3267    0.7249    0.0000 H       1  UNL1        0.0307
     22 H           8.5297    0.7249    0.0000 H       1  UNL1        0.0307
     23 H           7.5947    0.7249    0.0000 H       1  UNL1        0.0307
     24 H           6.7976    0.7249    0.0000 H       1  UNL1        0.0307
     25 H          11.1278   -0.7249    0.0000 H       1  UNL1        0.0307
     26 H          11.9248   -0.7249    0.0000 H       1  UNL1        0.0307
     27 H           4.1306    0.7249    0.0000 H       1  UNL1        0.0268
     28 H           3.3335    0.7249    0.0000 H       1  UNL1        0.0268
     29 H           4.1996   -0.7249    0.0000 H       1  UNL1        0.0307
     30 H           4.9966   -0.7249    0.0000 H       1  UNL1        0.0307
     31 H          12.8598   -0.7249    0.0000 H       1  UNL1        0.0287
     32 H          13.6569   -0.7249    0.0000 H       1  UNL1        0.0287
     33 H           9.7942   -0.8700    0.0000 H       1  UNL1        0.0569
     34 H          10.6603    0.8700    0.0000 H       1  UNL1        0.0569
     35 H           2.4675   -0.7249    0.0000 H       1  UNL1        0.0263
     36 H           3.2646   -0.7249    0.0000 H       1  UNL1        0.0263
     37 H           6.3301   -0.8700    0.0000 H       1  UNL1        0.0569
     38 H           5.4641    0.8700    0.0000 H       1  UNL1        0.0569
     39 H          14.5229    0.7249    0.0000 H       1  UNL1        0.0557
     40 H          13.7258    0.7249    0.0000 H       1  UNL1        0.0557
     41 H           2.3100    0.7869    0.0000 H       1  UNL1        0.0230
     42 H           1.4631    0.5600    0.0000 H       1  UNL1        0.0230
     43 H           1.6900   -0.2869    0.0000 H       1  UNL1        0.0230
     44 H          15.5273    0.0600    0.0000 H       1  UNL1        0.2094
@<TRIPOS>BOND
     1     1    15    1
     2     1    44    1
     3     2     3    1
     4     2     5    1
     5     2    17    1
     6     2    18    1
     7     3    10    1
     8     3    21    1
     9     3    22    1
    10     4     6    1
    11     4     9    1
    12     4    19    1
    13     4    20    1
    14     5    13    1
    15     5    23    1
    16     5    24    1
    17     6    11    1
    18     6    25    1
    19     6    26    1
    20     7     8    1
    21     7    12    1
    22     7    27    1
    23     7    28    1
    24     8    14    1
    25     8    29    1
    26     8    30    1
    27     9    15    1
    28     9    31    1
    29     9    32    1
    30    10    11    2
    31    10    33    1
    32    11    34    1
    33    12    16    1
    34    12    35    1
    35    12    36    1
    36    13    14    2
    37    13    37    1
    38    14    38    1
    39    15    39    1
    40    15    40    1
    41    16    41    1
    42    16    42    1
    43    16    43    1
