@<TRIPOS>MOLECULE
IMPHY008431
 123 129 0 0 0
SMALL
GASTEIGER

@<TRIPOS>ATOM
      1 O           6.8671   -5.0496    0.0000 O.3     1  UNL1       -0.3449
      2 O           8.6209    4.2298    0.0000 O.3     1  UNL1       -0.4318
      3 O           9.5042    2.7400    0.0000 O.2     1  UNL1       -0.2501
      4 O           5.1350   -5.0496    0.0000 O.3     1  UNL1       -0.3405
      5 O           9.4695    5.7398    0.0000 O.3     1  UNL1       -0.3312
      6 O           6.8671   -7.0496    0.0000 O.3     1  UNL1       -0.3841
      7 O           5.1350   -8.0496    0.0000 O.3     1  UNL1       -0.3864
      8 O           3.4030   -7.0496    0.0000 O.3     1  UNL1       -0.3865
      9 O          10.3644    3.2499    0.0000 O.3     1  UNL1       -0.3829
     10 O          12.0847    4.2699    0.0000 O.3     1  UNL1       -0.3864
     11 O           2.5369   -5.5496    0.0000 O.3     1  UNL1       -0.3924
     12 O          12.0616    6.2698    0.0000 O.3     1  UNL1       -0.3865
     13 O           9.4464    7.7396    0.0000 O.3     1  UNL1       -0.3924
     14 C           7.7681   -0.3494    0.0000 C.3     1  UNL1       -0.0194
     15 C           6.9040   -0.8527    0.0000 C.3     1  UNL1       -0.0257
     16 C           6.8920   -1.8943    0.0000 C.3     1  UNL1       -0.0250
     17 C           7.7643    0.6506    0.0000 C.3     1  UNL1       -0.0051
     18 C           7.7920   -2.4186    0.0000 C.3     1  UNL1       -0.0278
     19 C           8.6801   -0.8527    0.0000 C.3     1  UNL1       -0.0463
     20 C           8.6921   -1.8943    0.0000 C.3     1  UNL1       -0.0486
     21 C           7.8046   -3.5035    0.0000 C.3     1  UNL1       -0.0052
     22 C           6.8963    1.1473    0.0000 C.2     1  UNL1       -0.0629
     23 C           6.8762    2.1887    0.0000 C.3     1  UNL1       -0.0031
     24 C           6.0361   -0.3560    0.0000 C.3     1  UNL1       -0.0306
     25 C           5.9421   -2.4186    0.0000 C.3     1  UNL1       -0.0447
     26 C           8.6723    1.1610    0.0000 C.3     1  UNL1       -0.0424
     27 C           7.7722    2.7199    0.0000 C.3     1  UNL1        0.0744
     28 C           8.7522   -0.1719    0.0000 C.3     1  UNL1       -0.0585
     29 C           6.8671   -4.0496    0.0000 C.3     1  UNL1        0.0672
     30 C           8.6763    2.2026    0.0000 C.3     1  UNL1       -0.0359
     31 C           6.0279   -1.3909    0.0000 C.3     1  UNL1       -0.0590
     32 C           6.0322    0.6440    0.0000 C.2     1  UNL1       -0.0836
     33 C           5.9295   -3.5035    0.0000 C.3     1  UNL1       -0.0255
     34 C           8.7497    0.4808    0.0000 C.3     1  UNL1       -0.0553
     35 C           5.9223    2.7057    0.0000 C.3     1  UNL1       -0.0403
     36 C           7.7764    3.8049    0.0000 C.3     1  UNL1       -0.0362
     37 C           5.9014    3.7905    0.0000 C.3     1  UNL1       -0.0343
     38 C           8.3113   -4.3656    0.0000 C.3     1  UNL1       -0.0572
     39 C           8.8046   -3.4958    0.0000 C.3     1  UNL1       -0.0572
     40 C           6.8347    4.3438    0.0000 C.3     1  UNL1       -0.0468
     41 C           8.6324    3.2299    0.0000 C.2     1  UNL1        0.3161
     42 C           5.3881    4.6487    0.0000 C.3     1  UNL1       -0.0598
     43 C           4.9015    3.7750    0.0000 C.3     1  UNL1       -0.0598
     44 C           6.0010   -5.5496    0.0000 C.3     1  UNL1        0.1882
     45 C           6.0010   -6.5496    0.0000 C.3     1  UNL1        0.1341
     46 C           9.4810    4.7398    0.0000 C.3     1  UNL1        0.2337
     47 C           5.1350   -7.0496    0.0000 C.3     1  UNL1        0.1141
     48 C           4.2690   -5.5496    0.0000 C.3     1  UNL1        0.1130
     49 C           4.2690   -6.5496    0.0000 C.3     1  UNL1        0.1119
     50 C          10.3528    4.2499    0.0000 C.3     1  UNL1        0.1455
     51 C          11.2130    4.7599    0.0000 C.3     1  UNL1        0.1152
     52 C          10.3297    6.2497    0.0000 C.3     1  UNL1        0.1140
     53 C           3.4030   -5.0496    0.0000 C.3     1  UNL1        0.0730
     54 C          11.2014    5.7598    0.0000 C.3     1  UNL1        0.1120
     55 C          10.3181    7.2497    0.0000 C.3     1  UNL1        0.0731
     56 H           7.6385   -1.2805    0.0000 H       1  UNL1        0.0315
     57 H           8.5314   -2.8379    0.0000 H       1  UNL1        0.0312
     58 H           9.2921   -0.9517    0.0000 H       1  UNL1        0.0271
     59 H           8.8824   -0.2666    0.0000 H       1  UNL1        0.0271
     60 H           8.9079   -2.4755    0.0000 H       1  UNL1        0.0268
     61 H           9.3017   -1.7811    0.0000 H       1  UNL1        0.0268
     62 H           6.1502    1.7468    0.0000 H       1  UNL1        0.0357
     63 H           5.4251   -0.2507    0.0000 H       1  UNL1        0.0310
     64 H           5.8263   -0.9395    0.0000 H       1  UNL1        0.0310
     65 H           5.7398   -1.8325    0.0000 H       1  UNL1        0.0271
     66 H           5.3300   -2.5176    0.0000 H       1  UNL1        0.0271
     67 H           8.8791    0.5765    0.0000 H       1  UNL1        0.0274
     68 H           9.2836    1.2647    0.0000 H       1  UNL1        0.0274
     69 H           8.8623   -0.7821    0.0000 H       1  UNL1        0.0235
     70 H           9.3624   -0.0619    0.0000 H       1  UNL1        0.0235
     71 H           8.6422    0.4382    0.0000 H       1  UNL1        0.0235
     72 H           7.4046   -4.3586    0.0000 H       1  UNL1        0.0602
     73 H           9.2868    2.0942    0.0000 H       1  UNL1        0.0276
     74 H           8.8876    2.7855    0.0000 H       1  UNL1        0.0276
     75 H           6.3400   -0.8552    0.0000 H       1  UNL1        0.0235
     76 H           5.4922   -1.0789    0.0000 H       1  UNL1        0.0235
     77 H           5.7158   -1.9267    0.0000 H       1  UNL1        0.0235
     78 H           5.4941    0.9519    0.0000 H       1  UNL1        0.0572
     79 H           5.3199   -3.3903    0.0000 H       1  UNL1        0.0290
     80 H           5.7137   -4.0847    0.0000 H       1  UNL1        0.0290
     81 H           8.6444   -0.1302    0.0000 H       1  UNL1        0.0238
     82 H           9.3607    0.3755    0.0000 H       1  UNL1        0.0238
     83 H           8.8550    1.0918    0.0000 H       1  UNL1        0.0238
     84 H           5.3095    2.8000    0.0000 H       1  UNL1        0.0276
     85 H           5.7246    2.1181    0.0000 H       1  UNL1        0.0276
     86 H           8.3869    3.6965    0.0000 H       1  UNL1        0.0276
     87 H           7.9877    4.3878    0.0000 H       1  UNL1        0.0276
     88 H           7.7767   -4.6798    0.0000 H       1  UNL1        0.0236
     89 H           8.6254   -4.9002    0.0000 H       1  UNL1        0.0236
     90 H           8.8458   -4.0515    0.0000 H       1  UNL1        0.0236
     91 H           8.8094   -4.1157    0.0000 H       1  UNL1        0.0236
     92 H           9.4246   -3.4910    0.0000 H       1  UNL1        0.0236
     93 H           8.7998   -2.8758    0.0000 H       1  UNL1        0.0236
     94 H           7.2302    4.8213    0.0000 H       1  UNL1        0.0271
     95 H           6.4319    4.8151    0.0000 H       1  UNL1        0.0271
     96 H           5.9202    4.9669    0.0000 H       1  UNL1        0.0235
     97 H           5.0699    5.1808    0.0000 H       1  UNL1        0.0235
     98 H           4.8560    4.3304    0.0000 H       1  UNL1        0.0235
     99 H           4.8920    4.3950    0.0000 H       1  UNL1        0.0235
    100 H           4.2816    3.7655    0.0000 H       1  UNL1        0.0235
    101 H           4.9111    3.1551    0.0000 H       1  UNL1        0.0235
    102 H           6.0010   -4.9296    0.0000 H       1  UNL1        0.0937
    103 H           6.0010   -7.1696    0.0000 H       1  UNL1        0.0671
    104 H           9.4882    4.1199    0.0000 H       1  UNL1        0.1085
    105 H           4.5981   -7.3596    0.0000 H       1  UNL1        0.0648
    106 H           4.2690   -4.9296    0.0000 H       1  UNL1        0.0647
    107 H           3.7320   -6.2396    0.0000 H       1  UNL1        0.0647
    108 H          10.8933    3.9461    0.0000 H       1  UNL1        0.0683
    109 H           6.8671   -7.6696    0.0000 H       1  UNL1        0.2101
    110 H          11.7463    5.0761    0.0000 H       1  UNL1        0.0648
    111 H           9.7892    6.5535    0.0000 H       1  UNL1        0.0647
    112 H           3.8015   -4.5746    0.0000 H       1  UNL1        0.0584
    113 H           3.0044   -4.5746    0.0000 H       1  UNL1        0.0584
    114 H          11.1943    6.3797    0.0000 H       1  UNL1        0.0647
    115 H           4.5981   -8.3596    0.0000 H       1  UNL1        0.2100
    116 H           3.4030   -7.6696    0.0000 H       1  UNL1        0.2100
    117 H          10.9049    2.9462    0.0000 H       1  UNL1        0.2102
    118 H          10.9299    7.1491    0.0000 H       1  UNL1        0.0584
    119 H          10.5234    7.8347    0.0000 H       1  UNL1        0.0584
    120 H          12.6181    4.5861    0.0000 H       1  UNL1        0.2100
    121 H           2.0000   -5.2396    0.0000 H       1  UNL1        0.2095
    122 H          12.0544    6.8897    0.0000 H       1  UNL1        0.2100
    123 H           9.4392    8.3596    0.0000 H       1  UNL1        0.2095
@<TRIPOS>BOND
     1    29     1    1
     2    44     1    1
     3     2    41    1
     4    46     2    1
     5     3    41    2
     6     4    44    1
     7     4    48    1
     8     5    46    1
     9     5    52    1
    10    45     6    1
    11     6   109    1
    12    47     7    1
    13     7   115    1
    14    49     8    1
    15     8   116    1
    16    50     9    1
    17     9   117    1
    18    51    10    1
    19    10   120    1
    20    11    53    1
    21    11   121    1
    22    54    12    1
    23    12   122    1
    24    13    55    1
    25    13   123    1
    26    14    15    1
    27    14    17    1
    28    14    19    1
    29    14    28    1
    30    15    16    1
    31    15    24    1
    32    15    56    1
    33    16    18    1
    34    16    25    1
    35    16    31    1
    36    17    22    1
    37    17    26    1
    38    17    34    1
    39    18    20    1
    40    18    21    1
    41    18    57    1
    42    19    20    1
    43    19    58    1
    44    19    59    1
    45    20    60    1
    46    20    61    1
    47    21    29    1
    48    21    38    1
    49    21    39    1
    50    22    23    1
    51    22    32    2
    52    23    27    1
    53    23    35    1
    54    23    62    1
    55    24    32    1
    56    24    63    1
    57    24    64    1
    58    25    33    1
    59    25    65    1
    60    25    66    1
    61    26    30    1
    62    26    67    1
    63    26    68    1
    64    27    30    1
    65    27    36    1
    66    27    41    1
    67    28    69    1
    68    28    70    1
    69    28    71    1
    70    29    33    1
    71    29    72    1
    72    30    73    1
    73    30    74    1
    74    31    75    1
    75    31    76    1
    76    31    77    1
    77    32    78    1
    78    33    79    1
    79    33    80    1
    80    34    81    1
    81    34    82    1
    82    34    83    1
    83    35    37    1
    84    35    84    1
    85    35    85    1
    86    36    40    1
    87    36    86    1
    88    36    87    1
    89    37    40    1
    90    37    42    1
    91    37    43    1
    92    38    88    1
    93    38    89    1
    94    38    90    1
    95    39    91    1
    96    39    92    1
    97    39    93    1
    98    40    94    1
    99    40    95    1
   100    42    96    1
   101    42    97    1
   102    42    98    1
   103    43    99    1
   104    43   100    1
   105    43   101    1
   106    44    45    1
   107    44   102    1
   108    45    47    1
   109    45   103    1
   110    46    50    1
   111    46   104    1
   112    47    49    1
   113    47   105    1
   114    48    49    1
   115    48    53    1
   116    48   106    1
   117    49   107    1
   118    50    51    1
   119    50   108    1
   120    51    54    1
   121    51   110    1
   122    52    54    1
   123    52    55    1
   124    52   111    1
   125    53   112    1
   126    53   113    1
   127    54   114    1
   128    55   118    1
   129    55   119    1
