@<TRIPOS>MOLECULE
IMPHY003980
 42 43 0 0 0
SMALL
GASTEIGER

@<TRIPOS>ATOM
      1 O           2.8660   -0.8450    0.0000 O.3     1  UNL1       -0.3886
      2 O           3.7320   -3.3450    0.0000 O.3     1  UNL1       -0.3866
      3 O           6.3580    0.1203    0.0000 O.2     1  UNL1       -0.4216
      4 O           2.8660    0.1550    0.0000 O.3     1  UNL1       -0.4946
      5 O           4.5981    3.1550    0.0000 O.3     1  UNL1       -0.4943
      6 O           8.1282    0.1308    0.0000 O.2     1  UNL1       -0.2452
      7 C           3.7320   -2.3450    0.0000 C.3     1  UNL1        0.0865
      8 C           3.7320   -1.3450    0.0000 C.3     1  UNL1        0.0875
      9 C           4.5981   -0.8450    0.0000 C.3     1  UNL1        0.0081
     10 C           4.5981    0.1550    0.0000 C.ar    1  UNL1        0.0399
     11 C           2.7320   -2.3450    0.0000 C.3     1  UNL1       -0.0339
     12 C           4.7320   -2.3450    0.0000 C.3     1  UNL1       -0.0339
     13 C           5.4641    0.6550    0.0000 C.ar    1  UNL1        0.1493
     14 C           3.7320    0.6550    0.0000 C.ar    1  UNL1        0.1303
     15 C           5.4641    1.6550    0.0000 C.ar    1  UNL1        0.0597
     16 C           4.5981    2.1550    0.0000 C.ar    1  UNL1        0.1342
     17 C           3.7320    1.6550    0.0000 C.ar    1  UNL1        0.0228
     18 C           6.3580    2.1897    0.0000 C.ar    1  UNL1       -0.0408
     19 C           7.2641    1.6758    0.0000 C.ar    1  UNL1        0.0237
     20 C           7.2641    0.6342    0.0000 C.ar    1  UNL1        0.3372
     21 C           2.0000    0.6550    0.0000 C.3     1  UNL1        0.0788
     22 C           3.7320    3.6550    0.0000 C.3     1  UNL1        0.0788
     23 H           3.7320   -0.7250    0.0000 H       1  UNL1        0.0625
     24 H           4.8101   -1.4276    0.0000 H       1  UNL1        0.0341
     25 H           5.2087   -0.7373    0.0000 H       1  UNL1        0.0341
     26 H           4.7320   -2.9650    0.0000 H       1  UNL1        0.0258
     27 H           2.7320   -1.7250    0.0000 H       1  UNL1        0.0258
     28 H           2.1120   -2.3450    0.0000 H       1  UNL1        0.0258
     29 H           2.7320   -2.9650    0.0000 H       1  UNL1        0.0258
     30 H           5.3520   -2.3450    0.0000 H       1  UNL1        0.0258
     31 H           4.7320   -1.7250    0.0000 H       1  UNL1        0.0258
     32 H           2.3291   -1.1550    0.0000 H       1  UNL1        0.2099
     33 H           3.1951   -3.6550    0.0000 H       1  UNL1        0.2102
     34 H           3.1951    1.9650    0.0000 H       1  UNL1        0.0691
     35 H           6.3509    2.8096    0.0000 H       1  UNL1        0.0628
     36 H           7.7998    1.9879    0.0000 H       1  UNL1        0.0689
     37 H           2.3100    1.1919    0.0000 H       1  UNL1        0.0660
     38 H           1.4631    0.9650    0.0000 H       1  UNL1        0.0660
     39 H           1.6900    0.1181    0.0000 H       1  UNL1        0.0660
     40 H           4.0420    4.1919    0.0000 H       1  UNL1        0.0660
     41 H           3.1951    3.9650    0.0000 H       1  UNL1        0.0660
     42 H           3.4220    3.1181    0.0000 H       1  UNL1        0.0660
@<TRIPOS>BOND
     1     8     1    1
     2     1    32    1
     3     2     7    1
     4     2    33    1
     5     3    13   ar
     6     3    20   ar
     7     4    14    1
     8     4    21    1
     9     5    16    1
    10     5    22    1
    11     6    20    2
    12     7     8    1
    13     7    11    1
    14     7    12    1
    15     8     9    1
    16     8    23    1
    17     9    10    1
    18     9    24    1
    19     9    25    1
    20    10    13   ar
    21    10    14   ar
    22    11    27    1
    23    11    28    1
    24    11    29    1
    25    12    26    1
    26    12    30    1
    27    12    31    1
    28    13    15   ar
    29    14    17   ar
    30    15    16   ar
    31    15    18   ar
    32    16    17   ar
    33    17    34    1
    34    18    19   ar
    35    18    35    1
    36    19    20   ar
    37    19    36    1
    38    21    37    1
    39    21    38    1
    40    21    39    1
    41    22    40    1
    42    22    41    1
    43    22    42    1
