@<TRIPOS>MOLECULE
IMPHY004578
 50 53 0 0 0
SMALL
GASTEIGER

@<TRIPOS>ATOM
      1 O           3.4030   -1.4221    0.0000 O.3     1  UNL1       -0.3609
      2 O           6.0010   -0.9221    0.0000 O.3     1  UNL1       -0.3862
      3 O           6.0010   -2.9221    0.0000 O.3     1  UNL1       -0.3865
      4 O           4.2690   -3.9221    0.0000 O.3     1  UNL1       -0.3865
      5 O           2.5369   -3.9221    0.0000 O.3     1  UNL1       -0.3924
      6 O           6.0290    0.0433    0.0000 O.2     1  UNL1       -0.4616
      7 O           2.5369    0.0779    0.0000 O.3     1  UNL1       -0.5063
      8 O           6.0174    3.1125    0.0000 O.2     1  UNL1       -0.2864
      9 O          10.3914    3.6121    0.0000 O.3     1  UNL1       -0.5068
     10 C           5.1350   -1.4221    0.0000 C.3     1  UNL1        0.1139
     11 C           5.1350   -2.4221    0.0000 C.3     1  UNL1        0.1121
     12 C           4.2690   -0.9221    0.0000 C.3     1  UNL1        0.1193
     13 C           4.2690   -2.9221    0.0000 C.3     1  UNL1        0.1117
     14 C           3.4030   -2.4221    0.0000 C.3     1  UNL1        0.1108
     15 C           4.2690    0.0779    0.0000 C.ar    1  UNL1        0.0679
     16 C           2.5369   -2.9221    0.0000 C.3     1  UNL1        0.0729
     17 C           5.1350    0.5779    0.0000 C.ar    1  UNL1        0.1476
     18 C           3.4030    0.5779    0.0000 C.ar    1  UNL1        0.1261
     19 C           5.1350    1.5779    0.0000 C.ar    1  UNL1        0.0651
     20 C           3.4030    1.5779    0.0000 C.ar    1  UNL1       -0.0189
     21 C           4.2690    2.0779    0.0000 C.ar    1  UNL1       -0.0439
     22 C           6.0290    2.1126    0.0000 C.ar    1  UNL1        0.2002
     23 C           6.9350    1.5987    0.0000 C.ar    1  UNL1        0.0643
     24 C           6.9350    0.5571    0.0000 C.ar    1  UNL1        0.1039
     25 C           7.7991    2.1021    0.0000 C.ar    1  UNL1       -0.0110
     26 C           8.6671    1.6054    0.0000 C.ar    1  UNL1       -0.0504
     27 C           7.7953    3.1021    0.0000 C.ar    1  UNL1       -0.0504
     28 C           9.5312    2.1088    0.0000 C.ar    1  UNL1       -0.0196
     29 C           8.6594    3.6054    0.0000 C.ar    1  UNL1       -0.0196
     30 C           9.5273    3.1087    0.0000 C.ar    1  UNL1        0.1169
     31 H           5.1350   -0.8021    0.0000 H       1  UNL1        0.0649
     32 H           5.1350   -3.0421    0.0000 H       1  UNL1        0.0647
     33 H           3.5329   -0.4971    0.0000 H       1  UNL1        0.0676
     34 H           3.7320   -3.2321    0.0000 H       1  UNL1        0.0647
     35 H           2.8660   -2.1121    0.0000 H       1  UNL1        0.0646
     36 H           2.3249   -2.3395    0.0000 H       1  UNL1        0.0584
     37 H           1.9264   -3.0297    0.0000 H       1  UNL1        0.0584
     38 H           6.5380   -1.2321    0.0000 H       1  UNL1        0.2100
     39 H           6.0010   -3.5421    0.0000 H       1  UNL1        0.2100
     40 H           4.8059   -4.2321    0.0000 H       1  UNL1        0.2100
     41 H           2.8660    1.8879    0.0000 H       1  UNL1        0.0654
     42 H           4.2690    2.6979    0.0000 H       1  UNL1        0.0627
     43 H           2.0000   -4.2321    0.0000 H       1  UNL1        0.2095
     44 H           7.4708    0.2450    0.0000 H       1  UNL1        0.1037
     45 H           2.0000    0.3879    0.0000 H       1  UNL1        0.2921
     46 H           8.6694    0.9854    0.0000 H       1  UNL1        0.0625
     47 H           7.2571    3.4100    0.0000 H       1  UNL1        0.0625
     48 H          10.0693    1.8008    0.0000 H       1  UNL1        0.0654
     49 H           8.6570    4.2254    0.0000 H       1  UNL1        0.0654
     50 H          10.3890    4.2321    0.0000 H       1  UNL1        0.2921
@<TRIPOS>BOND
     1     1    12    1
     2     1    14    1
     3    10     2    1
     4     2    38    1
     5    11     3    1
     6     3    39    1
     7    13     4    1
     8     4    40    1
     9     5    16    1
    10     5    43    1
    11     6    17   ar
    12     6    24   ar
    13     7    18    1
    14     7    45    1
    15     8    22    2
    16     9    30    1
    17     9    50    1
    18    10    11    1
    19    10    12    1
    20    10    31    1
    21    11    13    1
    22    11    32    1
    23    12    15    1
    24    12    33    1
    25    13    14    1
    26    13    34    1
    27    14    16    1
    28    14    35    1
    29    15    17   ar
    30    15    18   ar
    31    16    36    1
    32    16    37    1
    33    17    19   ar
    34    18    20   ar
    35    19    21   ar
    36    19    22   ar
    37    20    21   ar
    38    20    41    1
    39    21    42    1
    40    22    23   ar
    41    23    24   ar
    42    23    25    1
    43    24    44    1
    44    25    26   ar
    45    25    27   ar
    46    26    28   ar
    47    26    46    1
    48    27    29   ar
    49    27    47    1
    50    28    30   ar
    51    28    48    1
    52    29    30   ar
    53    29    49    1
