@<TRIPOS>MOLECULE
IMPHY004101
 35 35 0 0 0
SMALL
GASTEIGER

@<TRIPOS>ATOM
      1 S           6.0010    0.4720    0.0000 S.3     1  UNL1       -0.0731
      2 S           8.5991    1.9720    0.0000 S.O2    1  UNL1        0.2709
      3 O           4.2690    0.4720    0.0000 O.3     1  UNL1       -0.3549
      4 O           2.5369   -1.5280    0.0000 O.3     1  UNL1       -0.3865
      5 O           4.2690   -2.5280    0.0000 O.3     1  UNL1       -0.3865
      6 O           6.0010   -1.5280    0.0000 O.3     1  UNL1       -0.3857
      7 O           2.5369    1.4720    0.0000 O.3     1  UNL1       -0.3924
      8 O           7.7331    1.4720    0.0000 O.2     1  UNL1       -0.2069
      9 O           9.4651    2.4720    0.0000 O.3     1  UNL1       -0.2209
     10 O           9.0991    1.1060    0.0000 O.2     1  UNL1       -0.1060
     11 O           8.0991    2.8380    0.0000 O.2     1  UNL1       -0.1060
     12 N           6.8671    1.9720    0.0000 N.2     1  UNL1       -0.0486
     13 C           3.4030   -1.0280    0.0000 C.3     1  UNL1        0.1118
     14 C           4.2690   -1.5280    0.0000 C.3     1  UNL1        0.1126
     15 C           3.4030   -0.0280    0.0000 C.3     1  UNL1        0.1115
     16 C           5.1350   -1.0280    0.0000 C.3     1  UNL1        0.1192
     17 C           5.1350   -0.0280    0.0000 C.3     1  UNL1        0.1384
     18 C           2.5369    0.4720    0.0000 C.3     1  UNL1        0.0730
     19 C           6.0010    1.4720    0.0000 C.2     1  UNL1        0.1151
     20 C           5.1350    1.9720    0.0000 C.3     1  UNL1       -0.0129
     21 H           3.4030   -1.6480    0.0000 H       1  UNL1        0.0647
     22 H           4.8059   -1.8380    0.0000 H       1  UNL1        0.0647
     23 H           3.4030    0.5920    0.0000 H       1  UNL1        0.0646
     24 H           5.6720   -0.7180    0.0000 H       1  UNL1        0.0655
     25 H           5.1350    0.5920    0.0000 H       1  UNL1        0.0743
     26 H           1.9264    0.5796    0.0000 H       1  UNL1        0.0584
     27 H           2.3249   -0.1106    0.0000 H       1  UNL1        0.0584
     28 H           2.0000   -1.2180    0.0000 H       1  UNL1        0.2100
     29 H           3.7320   -2.8380    0.0000 H       1  UNL1        0.2100
     30 H           6.5380   -1.2180    0.0000 H       1  UNL1        0.2100
     31 H           2.0000    1.7820    0.0000 H       1  UNL1        0.2095
     32 H           5.4450    2.5089    0.0000 H       1  UNL1        0.0299
     33 H           4.5981    2.2820    0.0000 H       1  UNL1        0.0299
     34 H           4.8250    1.4350    0.0000 H       1  UNL1        0.0299
     35 H          10.0021    2.1620    0.0000 H       1  UNL1        0.2480
@<TRIPOS>BOND
     1    17     1    1
     2     1    19    1
     3     2     8    1
     4     2     9    1
     5     2    10    2
     6     2    11    2
     7     3    15    1
     8     3    17    1
     9    13     4    1
    10     4    28    1
    11    14     5    1
    12     5    29    1
    13    16     6    1
    14     6    30    1
    15     7    18    1
    16     7    31    1
    17     8    12    1
    18     9    35    1
    19    12    19    2
    20    13    14    1
    21    13    15    1
    22    13    21    1
    23    14    16    1
    24    14    22    1
    25    15    18    1
    26    15    23    1
    27    16    17    1
    28    16    24    1
    29    17    25    1
    30    18    26    1
    31    18    27    1
    32    19    20    1
    33    20    32    1
    34    20    33    1
    35    20    34    1
