@<TRIPOS>MOLECULE
IMPHY005419
 57 61 0 0 0
SMALL
GASTEIGER

@<TRIPOS>ATOM
      1 O           5.7960    2.8249    0.0000 O.3     1  UNL1       -0.4640
      2 O           2.8660    1.7500    0.0000 O.3     1  UNL1       -0.4563
      3 O           7.1796    1.7109    0.0000 O.2     1  UNL1       -0.2505
      4 O           3.4982   -2.8315    0.0000 O.3     1  UNL1       -0.4526
      5 O           2.0463   -1.9933    0.0000 O.3     1  UNL1       -0.4526
      6 O           8.9282    0.2500    0.0000 O.3     1  UNL1       -0.4913
      7 O           7.1962   -2.7500    0.0000 O.3     1  UNL1       -0.4913
      8 O           8.9282   -1.7500    0.0000 O.3     1  UNL1       -0.4885
      9 O           3.7320    3.2500    0.0000 O.2     1  UNL1       -0.2511
     10 C           4.5981    1.7500    0.0000 C.3     1  UNL1        0.0483
     11 C           5.4641    1.2500    0.0000 C.3     1  UNL1        0.0768
     12 C           5.4641    0.2500    0.0000 C.3     1  UNL1        0.0233
     13 C           3.7320    1.2500    0.0000 C.3     1  UNL1        0.1351
     14 C           4.5981   -0.2500    0.0000 C.ar    1  UNL1       -0.0288
     15 C           4.8073    2.7218    0.0000 C.3     1  UNL1        0.0998
     16 C           3.7320    0.2500    0.0000 C.ar    1  UNL1        0.0006
     17 C           6.2011    1.9171    0.0000 C.2     1  UNL1        0.3116
     18 C           6.3301   -0.2500    0.0000 C.ar    1  UNL1       -0.0320
     19 C           4.6141   -1.2915    0.0000 C.ar    1  UNL1       -0.0120
     20 C           2.8220   -0.2568    0.0000 C.ar    1  UNL1       -0.0092
     21 C           3.7161   -1.8193    0.0000 C.ar    1  UNL1        0.1665
     22 C           2.8140   -1.2985    0.0000 C.ar    1  UNL1        0.1666
     23 C           6.3301   -1.2500    0.0000 C.ar    1  UNL1       -0.0123
     24 C           7.1962    0.2500    0.0000 C.ar    1  UNL1       -0.0123
     25 C           2.8660    2.7500    0.0000 C.2     1  UNL1        0.3045
     26 C           8.0622   -0.2500    0.0000 C.ar    1  UNL1        0.1654
     27 C           7.1962   -1.7500    0.0000 C.ar    1  UNL1        0.1654
     28 C           2.4683   -2.9389    0.0000 C.3     1  UNL1        0.2332
     29 C           8.0622   -1.2500    0.0000 C.ar    1  UNL1        0.2035
     30 C           2.0000    3.2500    0.0000 C.3     1  UNL1        0.0333
     31 C           8.9282    1.2500    0.0000 C.3     1  UNL1        0.0790
     32 C           8.0622   -3.2500    0.0000 C.3     1  UNL1        0.0790
     33 C           9.7942   -1.2500    0.0000 C.3     1  UNL1        0.0791
     34 H           3.9111    2.2505    0.0000 H       1  UNL1        0.0381
     35 H           6.2411    0.9053    0.0000 H       1  UNL1        0.0428
     36 H           5.4641   -0.3700    0.0000 H       1  UNL1        0.0405
     37 H           3.7320    1.8700    0.0000 H       1  UNL1        0.0789
     38 H           4.8082    3.3418    0.0000 H       1  UNL1        0.0702
     39 H           4.1908    2.7879    0.0000 H       1  UNL1        0.0702
     40 H           5.1546   -1.5953    0.0000 H       1  UNL1        0.0658
     41 H           2.2887    0.0593    0.0000 H       1  UNL1        0.0659
     42 H           5.7932   -1.5600    0.0000 H       1  UNL1        0.0658
     43 H           7.1962    0.8700    0.0000 H       1  UNL1        0.0658
     44 H           1.8787   -3.1306    0.0000 H       1  UNL1        0.1166
     45 H           2.5970   -3.5454    0.0000 H       1  UNL1        0.1166
     46 H           2.3100    3.7869    0.0000 H       1  UNL1        0.0342
     47 H           1.4631    3.5600    0.0000 H       1  UNL1        0.0342
     48 H           1.6900    2.7131    0.0000 H       1  UNL1        0.0342
     49 H           9.5482    1.2500    0.0000 H       1  UNL1        0.0660
     50 H           8.9282    1.8700    0.0000 H       1  UNL1        0.0660
     51 H           8.3082    1.2500    0.0000 H       1  UNL1        0.0660
     52 H           7.7522   -3.7869    0.0000 H       1  UNL1        0.0660
     53 H           8.5991   -3.5600    0.0000 H       1  UNL1        0.0660
     54 H           8.3722   -2.7131    0.0000 H       1  UNL1        0.0660
     55 H          10.1042   -1.7869    0.0000 H       1  UNL1        0.0660
     56 H          10.3312   -0.9400    0.0000 H       1  UNL1        0.0660
     57 H           9.4842   -0.7131    0.0000 H       1  UNL1        0.0660
@<TRIPOS>BOND
     1     1    15    1
     2     1    17    1
     3    13     2    1
     4     2    25    1
     5     3    17    2
     6     4    21    1
     7     4    28    1
     8     5    22    1
     9     5    28    1
    10     6    26    1
    11     6    31    1
    12     7    27    1
    13     7    32    1
    14     8    29    1
    15     8    33    1
    16     9    25    2
    17    10    11    1
    18    10    13    1
    19    10    15    1
    20    10    34    1
    21    11    12    1
    22    11    17    1
    23    11    35    1
    24    12    14    1
    25    12    18    1
    26    12    36    1
    27    13    16    1
    28    13    37    1
    29    14    16   ar
    30    14    19   ar
    31    15    38    1
    32    15    39    1
    33    16    20   ar
    34    18    23   ar
    35    18    24   ar
    36    19    21   ar
    37    19    40    1
    38    20    22   ar
    39    20    41    1
    40    21    22   ar
    41    23    27   ar
    42    23    42    1
    43    24    26   ar
    44    24    43    1
    45    25    30    1
    46    26    29   ar
    47    27    29   ar
    48    28    44    1
    49    28    45    1
    50    30    46    1
    51    30    47    1
    52    30    48    1
    53    31    49    1
    54    31    50    1
    55    31    51    1
    56    32    52    1
    57    32    53    1
    58    32    54    1
    59    33    55    1
    60    33    56    1
    61    33    57    1
