@<TRIPOS>MOLECULE
IMPHY004979
 34 35 0 0 0
SMALL
GASTEIGER

@<TRIPOS>ATOM
      1 O           5.4641   -2.7500    0.0000 O.3     1  UNL1       -0.4950
      2 O           2.0000   -2.7500    0.0000 O.3     1  UNL1       -0.4950
      3 C           3.7320   -0.7500    0.0000 C.ar    1  UNL1       -0.0181
      4 C           2.8660   -1.2500    0.0000 C.ar    1  UNL1       -0.0126
      5 C           4.5981   -1.2500    0.0000 C.ar    1  UNL1       -0.0126
      6 C           4.5981   -2.2500    0.0000 C.ar    1  UNL1        0.1241
      7 C           2.8660   -2.2500    0.0000 C.ar    1  UNL1        0.1241
      8 C           3.7320    0.2500    0.0000 C.2     1  UNL1       -0.0538
      9 C           3.7320   -2.7500    0.0000 C.ar    1  UNL1        0.0218
     10 C           4.5981    1.7500    0.0000 C.ar    1  UNL1       -0.0250
     11 C           4.5981    0.7500    0.0000 C.2     1  UNL1       -0.0540
     12 C           5.4641    2.2500    0.0000 C.ar    1  UNL1       -0.0546
     13 C           3.7320    2.2500    0.0000 C.ar    1  UNL1       -0.0546
     14 C           5.4641    3.2500    0.0000 C.ar    1  UNL1       -0.0612
     15 C           3.7320    3.2500    0.0000 C.ar    1  UNL1       -0.0612
     16 C           4.5981    3.7500    0.0000 C.ar    1  UNL1       -0.0617
     17 C           5.4641   -3.7500    0.0000 C.3     1  UNL1        0.0788
     18 C           2.0000   -3.7500    0.0000 C.3     1  UNL1        0.0788
     19 H           2.3291   -0.9400    0.0000 H       1  UNL1        0.0660
     20 H           5.1350   -0.9400    0.0000 H       1  UNL1        0.0660
     21 H           3.1951    0.5600    0.0000 H       1  UNL1        0.0624
     22 H           3.7320   -3.3700    0.0000 H       1  UNL1        0.0691
     23 H           5.1350    0.4400    0.0000 H       1  UNL1        0.0624
     24 H           6.0010    1.9400    0.0000 H       1  UNL1        0.0623
     25 H           3.1951    1.9400    0.0000 H       1  UNL1        0.0623
     26 H           6.0010    3.5600    0.0000 H       1  UNL1        0.0618
     27 H           3.1951    3.5600    0.0000 H       1  UNL1        0.0618
     28 H           4.5981    4.3700    0.0000 H       1  UNL1        0.0618
     29 H           4.8441   -3.7500    0.0000 H       1  UNL1        0.0660
     30 H           5.4641   -4.3700    0.0000 H       1  UNL1        0.0660
     31 H           6.0841   -3.7500    0.0000 H       1  UNL1        0.0660
     32 H           1.3800   -3.7500    0.0000 H       1  UNL1        0.0660
     33 H           2.0000   -4.3700    0.0000 H       1  UNL1        0.0660
     34 H           2.6200   -3.7500    0.0000 H       1  UNL1        0.0660
@<TRIPOS>BOND
     1     1     6    1
     2     1    17    1
     3     2     7    1
     4     2    18    1
     5     3     4   ar
     6     3     5   ar
     7     3     8    1
     8     4     7   ar
     9     4    19    1
    10     5     6   ar
    11     5    20    1
    12     6     9   ar
    13     7     9   ar
    14     8    11    2
    15     8    21    1
    16     9    22    1
    17    10    11    1
    18    10    12   ar
    19    10    13   ar
    20    11    23    1
    21    12    14   ar
    22    12    24    1
    23    13    15   ar
    24    13    25    1
    25    14    16   ar
    26    14    26    1
    27    15    16   ar
    28    15    27    1
    29    16    28    1
    30    17    29    1
    31    17    30    1
    32    17    31    1
    33    18    32    1
    34    18    33    1
    35    18    34    1
