@<TRIPOS>MOLECULE
IMPHY016167
 31 32 0 0 0
SMALL
GASTEIGER

@<TRIPOS>ATOM
      1 C           4.6260   -1.0174    0.0000 C.3     1  UNL1       -0.0182
      2 C           5.5321   -0.5035    0.0000 C.3     1  UNL1       -0.0461
      3 C           3.7320   -0.4827    0.0000 C.ar    1  UNL1       -0.0382
      4 C           5.5321    0.5381    0.0000 C.3     1  UNL1       -0.0485
      5 C           3.7320    0.5173    0.0000 C.ar    1  UNL1       -0.0408
      6 C           4.6260    1.0520    0.0000 C.3     1  UNL1       -0.0271
      7 C           2.8660   -0.9827    0.0000 C.ar    1  UNL1       -0.0467
      8 C           4.6144   -2.0173    0.0000 C.3     1  UNL1       -0.0584
      9 C           2.8660    1.0173    0.0000 C.ar    1  UNL1       -0.0470
     10 C           2.0000   -0.4827    0.0000 C.ar    1  UNL1       -0.0583
     11 C           2.0000    0.5173    0.0000 C.ar    1  UNL1       -0.0583
     12 C           2.8660   -1.9827    0.0000 C.3     1  UNL1       -0.0394
     13 C           2.8660    2.0173    0.0000 C.3     1  UNL1       -0.0394
     14 H           4.0849   -1.3201    0.0000 H       1  UNL1        0.0346
     15 H           5.7411   -1.0872    0.0000 H       1  UNL1        0.0271
     16 H           6.1429   -0.3974    0.0000 H       1  UNL1        0.0271
     17 H           6.1429    0.4320    0.0000 H       1  UNL1        0.0269
     18 H           5.7411    1.1218    0.0000 H       1  UNL1        0.0269
     19 H           5.0196    1.5310    0.0000 H       1  UNL1        0.0313
     20 H           4.2214    1.5218    0.0000 H       1  UNL1        0.0313
     21 H           3.9945   -2.0101    0.0000 H       1  UNL1        0.0236
     22 H           4.6073   -2.6373    0.0000 H       1  UNL1        0.0236
     23 H           5.2344   -2.0245    0.0000 H       1  UNL1        0.0236
     24 H           1.4631   -0.7927    0.0000 H       1  UNL1        0.0620
     25 H           1.4631    0.8273    0.0000 H       1  UNL1        0.0620
     26 H           2.2460   -1.9827    0.0000 H       1  UNL1        0.0278
     27 H           2.8660   -2.6027    0.0000 H       1  UNL1        0.0278
     28 H           3.4860   -1.9827    0.0000 H       1  UNL1        0.0278
     29 H           3.4860    2.0173    0.0000 H       1  UNL1        0.0278
     30 H           2.8660    2.6373    0.0000 H       1  UNL1        0.0278
     31 H           2.2460    2.0173    0.0000 H       1  UNL1        0.0278
@<TRIPOS>BOND
     1     1     2    1
     2     1     3    1
     3     1     8    1
     4     1    14    1
     5     2     4    1
     6     2    15    1
     7     2    16    1
     8     3     5   ar
     9     3     7   ar
    10     4     6    1
    11     4    17    1
    12     4    18    1
    13     5     6    1
    14     5     9   ar
    15     6    19    1
    16     6    20    1
    17     7    10   ar
    18     7    12    1
    19     8    21    1
    20     8    22    1
    21     8    23    1
    22     9    11   ar
    23     9    13    1
    24    10    11   ar
    25    10    24    1
    26    11    25    1
    27    12    26    1
    28    12    27    1
    29    12    28    1
    30    13    29    1
    31    13    30    1
    32    13    31    1
