@<TRIPOS>MOLECULE
IMPHY009618
 42 42 0 0 0
SMALL
GASTEIGER

@<TRIPOS>ATOM
      1 O           5.0981    3.6830    0.0000 O.3     1  UNL1       -0.3848
      2 C           4.5981    0.8170    0.0000 C.3     1  UNL1       -0.0201
      3 C           4.5981   -0.1830    0.0000 C.3     1  UNL1       -0.0373
      4 C           5.4641    1.3170    0.0000 C.3     1  UNL1       -0.0436
      5 C           5.4641    2.3170    0.0000 C.3     1  UNL1       -0.0201
      6 C           4.5981    2.8170    0.0000 C.3     1  UNL1        0.0814
      7 C           3.7320    1.3170    0.0000 C.2     1  UNL1       -0.0819
      8 C           3.7320   -0.6830    0.0000 C.3     1  UNL1       -0.0465
      9 C           3.7320    2.3170    0.0000 C.2     1  UNL1       -0.0568
     10 C           5.4641   -0.6830    0.0000 C.3     1  UNL1       -0.0619
     11 C           4.0981    3.6830    0.0000 C.3     1  UNL1       -0.0324
     12 C           3.7320   -1.6830    0.0000 C.3     1  UNL1       -0.0343
     13 C           2.8660   -2.1830    0.0000 C.2     1  UNL1       -0.0853
     14 C           2.8660   -3.1830    0.0000 C.2     1  UNL1       -0.0796
     15 C           2.0000   -3.6830    0.0000 C.3     1  UNL1       -0.0440
     16 C           3.7320   -3.6830    0.0000 C.3     1  UNL1       -0.0440
     17 H           5.1350    0.5070    0.0000 H       1  UNL1        0.0346
     18 H           4.5981   -0.8030    0.0000 H       1  UNL1        0.0304
     19 H           5.6762    0.7344    0.0000 H       1  UNL1        0.0272
     20 H           6.0747    1.4246    0.0000 H       1  UNL1        0.0272
     21 H           6.0747    2.2093    0.0000 H       1  UNL1        0.0296
     22 H           5.6762    2.8996    0.0000 H       1  UNL1        0.0296
     23 H           3.1951    1.0070    0.0000 H       1  UNL1        0.0573
     24 H           3.5200   -0.1004    0.0000 H       1  UNL1        0.0271
     25 H           3.1215   -0.7907    0.0000 H       1  UNL1        0.0271
     26 H           3.1951    2.6270    0.0000 H       1  UNL1        0.0597
     27 H           5.1541   -1.2200    0.0000 H       1  UNL1        0.0233
     28 H           6.0010   -0.9930    0.0000 H       1  UNL1        0.0233
     29 H           5.7741   -0.1461    0.0000 H       1  UNL1        0.0233
     30 H           4.6350    3.9930    0.0000 H       1  UNL1        0.0260
     31 H           3.7881    4.2200    0.0000 H       1  UNL1        0.0260
     32 H           3.5611    3.3730    0.0000 H       1  UNL1        0.0260
     33 H           3.9441   -2.2656    0.0000 H       1  UNL1        0.0307
     34 H           4.3426   -1.5754    0.0000 H       1  UNL1        0.0307
     35 H           5.7181    3.6830    0.0000 H       1  UNL1        0.2106
     36 H           2.3291   -1.8730    0.0000 H       1  UNL1        0.0571
     37 H           3.4220   -4.2200    0.0000 H       1  UNL1        0.0274
     38 H           4.2690   -3.9930    0.0000 H       1  UNL1        0.0274
     39 H           4.0420   -3.1461    0.0000 H       1  UNL1        0.0274
     40 H           1.6900   -3.1461    0.0000 H       1  UNL1        0.0274
     41 H           1.4631   -3.9930    0.0000 H       1  UNL1        0.0274
     42 H           2.3100   -4.2200    0.0000 H       1  UNL1        0.0274
@<TRIPOS>BOND
     1     1     6    1
     2     1    35    1
     3     2     3    1
     4     2     4    1
     5     2     7    1
     6     2    17    1
     7     3     8    1
     8     3    10    1
     9     3    18    1
    10     4     5    1
    11     4    19    1
    12     4    20    1
    13     5     6    1
    14     5    21    1
    15     5    22    1
    16     6     9    1
    17     6    11    1
    18     7     9    2
    19     7    23    1
    20     8    12    1
    21     8    24    1
    22     8    25    1
    23     9    26    1
    24    10    27    1
    25    10    28    1
    26    10    29    1
    27    11    30    1
    28    11    31    1
    29    11    32    1
    30    12    13    1
    31    12    33    1
    32    12    34    1
    33    13    14    2
    34    13    36    1
    35    14    15    1
    36    14    16    1
    37    15    40    1
    38    15    41    1
    39    15    42    1
    40    16    37    1
    41    16    38    1
    42    16    39    1
