@<TRIPOS>MOLECULE
IMPHY006595
 19 19 0 0 0
SMALL
GASTEIGER

@<TRIPOS>ATOM
      1 O           3.7601   -0.6133    0.0000 O.2     1  UNL1       -0.4566
      2 O           5.7281   -1.3127    0.0000 O.2     1  UNL1       -0.2803
      3 O           6.0554    1.3127    0.0000 O.2     1  UNL1       -0.2888
      4 C           4.5691   -0.0255    0.0000 C.ar    1  UNL1        0.1780
      5 C           2.9511   -0.0255    0.0000 C.ar    1  UNL1        0.1028
      6 C           4.2601    0.9255    0.0000 C.ar    1  UNL1       -0.0123
      7 C           3.2601    0.9255    0.0000 C.ar    1  UNL1       -0.0203
      8 C           5.5202   -0.3346    0.0000 C.2     1  UNL1        0.2625
      9 C           2.0000   -0.3346    0.0000 C.3     1  UNL1       -0.0063
     10 C           6.2633    0.3346    0.0000 C.2     1  UNL1        0.2030
     11 C           7.2144    0.0255    0.0000 C.3     1  UNL1        0.0020
     12 H           4.6245    1.4271    0.0000 H       1  UNL1        0.0656
     13 H           2.8956    1.4271    0.0000 H       1  UNL1        0.0652
     14 H           1.8084    0.2551    0.0000 H       1  UNL1        0.0308
     15 H           1.4103   -0.5262    0.0000 H       1  UNL1        0.0308
     16 H           2.1916   -0.9242    0.0000 H       1  UNL1        0.0308
     17 H           7.0228   -0.5641    0.0000 H       1  UNL1        0.0310
     18 H           7.8040   -0.1660    0.0000 H       1  UNL1        0.0310
     19 H           7.4059    0.6152    0.0000 H       1  UNL1        0.0310
@<TRIPOS>BOND
     1     1     4   ar
     2     1     5   ar
     3     2     8    2
     4     3    10    2
     5     4     6   ar
     6     4     8    1
     7     5     7   ar
     8     5     9    1
     9     6     7   ar
    10     6    12    1
    11     7    13    1
    12     8    10    1
    13     9    14    1
    14     9    15    1
    15     9    16    1
    16    10    11    1
    17    11    17    1
    18    11    18    1
    19    11    19    1
