@<TRIPOS>MOLECULE
IMPHY004616
 54 56 0 0 0
SMALL
GASTEIGER

@<TRIPOS>ATOM
      1 O           6.0812    2.2264    0.0000 O.2     1  UNL1       -0.4547
      2 O           9.6648    1.2990    0.0000 O.3     1  UNL1       -0.5063
      3 O           9.6648    4.7631    0.0000 O.3     1  UNL1       -0.5066
      4 O           2.5369    2.0311    0.0000 O.3     1  UNL1       -0.5066
      5 C           8.1648    2.1651    0.0000 C.ar    1  UNL1        0.0086
      6 C           7.6648    1.2990    0.0000 C.3     1  UNL1       -0.0051
      7 C           7.6648    3.0311    0.0000 C.ar    1  UNL1        0.0277
      8 C           7.6648   -0.4330    0.0000 C.2     1  UNL1       -0.0759
      9 C           8.1648   -1.2990    0.0000 C.3     1  UNL1       -0.0286
     10 C           6.6648    3.0311    0.0000 C.ar    1  UNL1        0.1367
     11 C           8.1648    0.4330    0.0000 C.2     1  UNL1       -0.0806
     12 C           7.6648   -2.1651    0.0000 C.3     1  UNL1       -0.0308
     13 C           9.1648    2.1651    0.0000 C.ar    1  UNL1        0.1244
     14 C           5.1350    3.5311    0.0000 C.ar    1  UNL1        0.0210
     15 C           8.1648    3.8971    0.0000 C.ar    1  UNL1       -0.0090
     16 C           6.0812    3.8358    0.0000 C.ar    1  UNL1       -0.0081
     17 C           5.1350    2.5311    0.0000 C.ar    1  UNL1        0.1391
     18 C           9.6648    3.0311    0.0000 C.ar    1  UNL1        0.0216
     19 C           9.1648    3.8971    0.0000 C.ar    1  UNL1        0.1210
     20 C           6.6648   -0.4330    0.0000 C.3     1  UNL1       -0.0438
     21 C           8.1648   -3.0311    0.0000 C.2     1  UNL1       -0.0850
     22 C           4.2690    4.0311    0.0000 C.ar    1  UNL1       -0.0475
     23 C           4.2690    2.0311    0.0000 C.ar    1  UNL1        0.0227
     24 C           7.6648   -3.8971    0.0000 C.2     1  UNL1       -0.0796
     25 C           3.4030    2.5311    0.0000 C.ar    1  UNL1        0.1204
     26 C           3.4030    3.5311    0.0000 C.ar    1  UNL1       -0.0194
     27 C           8.1648   -4.7631    0.0000 C.3     1  UNL1       -0.0440
     28 C           6.6648   -3.8971    0.0000 C.3     1  UNL1       -0.0440
     29 H           7.1899    1.6976    0.0000 H       1  UNL1        0.0357
     30 H           7.1899    0.9005    0.0000 H       1  UNL1        0.0357
     31 H           8.6398   -1.6976    0.0000 H       1  UNL1        0.0313
     32 H           8.6398   -0.9005    0.0000 H       1  UNL1        0.0313
     33 H           8.7848    0.4330    0.0000 H       1  UNL1        0.0575
     34 H           7.1899   -1.7665    0.0000 H       1  UNL1        0.0310
     35 H           7.1899   -2.5636    0.0000 H       1  UNL1        0.0310
     36 H           7.8548    4.4340    0.0000 H       1  UNL1        0.0661
     37 H           6.2738    4.4251    0.0000 H       1  UNL1        0.0661
     38 H          10.2848    3.0311    0.0000 H       1  UNL1        0.0691
     39 H           6.6648    0.1870    0.0000 H       1  UNL1        0.0274
     40 H           6.0448   -0.4330    0.0000 H       1  UNL1        0.0274
     41 H           6.6648   -1.0530    0.0000 H       1  UNL1        0.0274
     42 H           8.7848   -3.0311    0.0000 H       1  UNL1        0.0572
     43 H           4.2690    4.6511    0.0000 H       1  UNL1        0.0626
     44 H           4.2690    1.4111    0.0000 H       1  UNL1        0.0691
     45 H           2.8660    3.8411    0.0000 H       1  UNL1        0.0654
     46 H          10.2848    1.2990    0.0000 H       1  UNL1        0.2921
     47 H           6.6648   -3.2771    0.0000 H       1  UNL1        0.0274
     48 H           6.0448   -3.8971    0.0000 H       1  UNL1        0.0274
     49 H           6.6648   -4.5171    0.0000 H       1  UNL1        0.0274
     50 H           7.6279   -5.0731    0.0000 H       1  UNL1        0.0274
     51 H           8.4748   -5.3001    0.0000 H       1  UNL1        0.0274
     52 H           8.7018   -4.4531    0.0000 H       1  UNL1        0.0274
     53 H          10.2848    4.7631    0.0000 H       1  UNL1        0.2921
     54 H           2.0000    2.3411    0.0000 H       1  UNL1        0.2921
@<TRIPOS>BOND
     1     1    10   ar
     2     1    17   ar
     3     2    13    1
     4     2    46    1
     5     3    19    1
     6     3    53    1
     7     4    25    1
     8     4    54    1
     9     5     6    1
    10     5     7   ar
    11     5    13   ar
    12     6    11    1
    13     6    29    1
    14     6    30    1
    15     7    10    1
    16     7    15   ar
    17     8     9    1
    18     8    11    2
    19     8    20    1
    20     9    12    1
    21     9    31    1
    22     9    32    1
    23    10    16   ar
    24    11    33    1
    25    12    21    1
    26    12    34    1
    27    12    35    1
    28    13    18   ar
    29    14    16   ar
    30    14    17   ar
    31    14    22   ar
    32    15    19   ar
    33    15    36    1
    34    16    37    1
    35    17    23   ar
    36    18    19   ar
    37    18    38    1
    38    20    39    1
    39    20    40    1
    40    20    41    1
    41    21    24    2
    42    21    42    1
    43    22    26   ar
    44    22    43    1
    45    23    25   ar
    46    23    44    1
    47    24    27    1
    48    24    28    1
    49    25    26   ar
    50    26    45    1
    51    27    50    1
    52    27    51    1
    53    27    52    1
    54    28    47    1
    55    28    48    1
    56    28    49    1
