@<TRIPOS>MOLECULE
IMPHY013223
 62 65 0 0 0
SMALL
GASTEIGER

@<TRIPOS>ATOM
      1 O           6.3301    0.4198    0.0000 O.3     1  UNL1       -0.3587
      2 O           8.0622    2.4198    0.0000 O.3     1  UNL1       -0.4558
      3 O           6.3301    3.4198    0.0000 O.3     1  UNL1       -0.3854
      4 O           4.5981    2.4198    0.0000 O.3     1  UNL1       -0.3864
      5 O           3.7320    0.9198    0.0000 O.3     1  UNL1       -0.4621
      6 O           8.9282    1.9198    0.0000 O.3     1  UNL1       -0.5054
      7 O           7.1962   -1.0802    0.0000 O.3     1  UNL1       -0.5062
      8 O          10.6882   -1.1149    0.0000 O.2     1  UNL1       -0.4544
      9 O           7.1962    3.9198    0.0000 O.2     1  UNL1       -0.2512
     10 O          10.6766    1.9544    0.0000 O.2     1  UNL1       -0.2869
     11 O           2.8660   -0.5802    0.0000 O.2     1  UNL1       -0.2512
     12 O          13.3147   -3.6077    0.0000 O.3     1  UNL1       -0.5033
     13 O          15.0506   -2.6144    0.0000 O.3     1  UNL1       -0.5033
     14 C           7.1962    1.9198    0.0000 C.3     1  UNL1        0.1615
     15 C           6.3301    2.4198    0.0000 C.3     1  UNL1        0.1231
     16 C           7.1962    0.9198    0.0000 C.3     1  UNL1        0.1304
     17 C           5.4641    1.9198    0.0000 C.3     1  UNL1        0.1138
     18 C           5.4641    0.9198    0.0000 C.3     1  UNL1        0.1219
     19 C           8.0622    0.4198    0.0000 C.ar    1  UNL1        0.0684
     20 C           4.5981    0.4198    0.0000 C.3     1  UNL1        0.1211
     21 C           8.9282    0.9198    0.0000 C.ar    1  UNL1        0.1404
     22 C           8.0622   -0.5802    0.0000 C.ar    1  UNL1        0.1296
     23 C           9.7942    0.4198    0.0000 C.ar    1  UNL1        0.1058
     24 C           8.9282   -1.0802    0.0000 C.ar    1  UNL1        0.0235
     25 C           9.7942   -0.5802    0.0000 C.ar    1  UNL1        0.1463
     26 C           8.0622    3.4198    0.0000 C.2     1  UNL1        0.3044
     27 C          10.6882    0.9544    0.0000 C.ar    1  UNL1        0.1966
     28 C           8.9282    3.9198    0.0000 C.3     1  UNL1        0.0332
     29 C           2.8660    0.4198    0.0000 C.2     1  UNL1        0.3040
     30 C          11.5942    0.4406    0.0000 C.ar    1  UNL1        0.0288
     31 C          11.5942   -0.6010    0.0000 C.ar    1  UNL1        0.1393
     32 C          12.4583   -1.1044    0.0000 C.ar    1  UNL1        0.0211
     33 C           2.0000    0.9198    0.0000 C.3     1  UNL1        0.0332
     34 C          12.4545   -2.1044    0.0000 C.ar    1  UNL1       -0.0059
     35 C          13.3263   -0.6077    0.0000 C.ar    1  UNL1       -0.0474
     36 C          13.3186   -2.6077    0.0000 C.ar    1  UNL1        0.1589
     37 C          14.1904   -1.1111    0.0000 C.ar    1  UNL1       -0.0159
     38 C          14.1865   -2.1110    0.0000 C.ar    1  UNL1        0.1583
     39 H           7.7331    1.6098    0.0000 H       1  UNL1        0.0791
     40 H           6.8671    2.7298    0.0000 H       1  UNL1        0.0658
     41 H           7.1962    0.2998    0.0000 H       1  UNL1        0.0687
     42 H           5.4641    2.5398    0.0000 H       1  UNL1        0.0647
     43 H           5.4641    0.2998    0.0000 H       1  UNL1        0.0657
     44 H           4.1996   -0.0552    0.0000 H       1  UNL1        0.0724
     45 H           4.9966   -0.0552    0.0000 H       1  UNL1        0.0724
     46 H           5.7932    3.7298    0.0000 H       1  UNL1        0.2101
     47 H           4.5981    3.0398    0.0000 H       1  UNL1        0.2100
     48 H           8.9282   -1.7002    0.0000 H       1  UNL1        0.0691
     49 H           9.4651    2.2298    0.0000 H       1  UNL1        0.2922
     50 H           7.1962   -1.7002    0.0000 H       1  UNL1        0.2922
     51 H           9.2382    3.3828    0.0000 H       1  UNL1        0.0342
     52 H           9.4651    4.2298    0.0000 H       1  UNL1        0.0342
     53 H           8.6182    4.4567    0.0000 H       1  UNL1        0.0342
     54 H          12.1300    0.7527    0.0000 H       1  UNL1        0.0693
     55 H           2.3100    1.4567    0.0000 H       1  UNL1        0.0342
     56 H           1.4631    1.2298    0.0000 H       1  UNL1        0.0342
     57 H           1.6900    0.3828    0.0000 H       1  UNL1        0.0342
     58 H          11.9163   -2.4123    0.0000 H       1  UNL1        0.0662
     59 H          13.3287    0.0123    0.0000 H       1  UNL1        0.0626
     60 H          14.7285   -0.8031    0.0000 H       1  UNL1        0.0655
     61 H          13.8504   -3.9198    0.0000 H       1  UNL1        0.2923
     62 H          15.5887   -2.3065    0.0000 H       1  UNL1        0.2923
@<TRIPOS>BOND
     1     1    16    1
     2     1    18    1
     3     2    14    1
     4     2    26    1
     5     3    15    1
     6     3    46    1
     7     4    17    1
     8     4    47    1
     9     5    20    1
    10     5    29    1
    11     6    21    1
    12     6    49    1
    13     7    22    1
    14     7    50    1
    15     8    25   ar
    16     8    31   ar
    17     9    26    2
    18    10    27    2
    19    11    29    2
    20    12    36    1
    21    12    61    1
    22    13    38    1
    23    13    62    1
    24    14    15    1
    25    14    16    1
    26    14    39    1
    27    15    17    1
    28    15    40    1
    29    16    19    1
    30    16    41    1
    31    17    18    1
    32    17    42    1
    33    18    20    1
    34    18    43    1
    35    19    21   ar
    36    19    22   ar
    37    20    44    1
    38    20    45    1
    39    21    23   ar
    40    22    24   ar
    41    23    25   ar
    42    23    27   ar
    43    24    25   ar
    44    24    48    1
    45    26    28    1
    46    27    30   ar
    47    28    51    1
    48    28    52    1
    49    28    53    1
    50    29    33    1
    51    30    31   ar
    52    30    54    1
    53    31    32    1
    54    32    34   ar
    55    32    35   ar
    56    33    55    1
    57    33    56    1
    58    33    57    1
    59    34    36   ar
    60    34    58    1
    61    35    37   ar
    62    35    59    1
    63    36    38   ar
    64    37    38   ar
    65    37    60    1
