@<TRIPOS>MOLECULE
IMPHY002722
 83 90 0 0 0
SMALL
GASTEIGER

@<TRIPOS>ATOM
      1 O           5.0248    3.0412    0.0000 O.3     1  UNL1       -0.4444
      2 O           8.4897    3.1547    0.0000 O.3     1  UNL1       -0.4444
      3 O           6.4348   -0.1051    0.0000 O.3     1  UNL1       -0.4797
      4 O           5.8214    5.2010    0.0000 O.3     1  UNL1       -0.3827
      5 O           5.3384   -2.6694    0.0000 O.3     1  UNL1       -0.4534
      6 O           2.8249    0.1644    0.0000 O.3     1  UNL1       -0.5063
      7 O           7.4336   -0.0597    0.0000 O.3     1  UNL1       -0.5062
      8 O          10.9319    0.4806    0.0000 O.3     1  UNL1       -0.5065
      9 O           6.1614    6.6984    0.0000 O.3     1  UNL1       -0.5032
     10 O           9.5075    5.8018    0.0000 O.3     1  UNL1       -0.5032
     11 O           8.0933    7.2160    0.0000 O.3     1  UNL1       -0.5009
     12 O           9.8341   -1.3902    0.0000 O.3     1  UNL1       -0.5032
     13 O           7.9303   -4.2842    0.0000 O.3     1  UNL1       -0.5032
     14 O           3.6102   -2.5553    0.0000 O.2     1  UNL1       -0.2449
     15 O           9.7177   -3.3868    0.0000 O.3     1  UNL1       -0.5009
     16 O           5.9719   -6.2189    0.0000 O.3     1  UNL1       -0.5032
     17 O           2.5153   -5.9906    0.0000 O.3     1  UNL1       -0.5032
     18 O           4.1777   -7.1026    0.0000 O.3     1  UNL1       -0.5009
     19 C           6.7992    2.3864    0.0000 C.3     1  UNL1        0.0567
     20 C           6.3214    4.3350    0.0000 C.3     1  UNL1        0.1477
     21 C           7.0580    3.3523    0.0000 C.3     1  UNL1        0.3075
     22 C           5.5782    1.5208    0.0000 C.ar    1  UNL1        0.0469
     23 C           8.0709    1.5918    0.0000 C.ar    1  UNL1        0.0463
     24 C           4.7491    2.0800    0.0000 C.ar    1  UNL1        0.1365
     25 C           5.5216    0.4807    0.0000 C.ar    1  UNL1        0.1356
     26 C           8.8480    2.2211    0.0000 C.ar    1  UNL1        0.1365
     27 C           4.5889    0.0168    0.0000 C.ar    1  UNL1        0.0398
     28 C           7.3168    4.3183    0.0000 C.ar    1  UNL1        0.0458
     29 C           4.5049   -1.0649    0.0000 C.3     1  UNL1        0.0204
     30 C           5.4044   -1.6716    0.0000 C.3     1  UNL1        0.1483
     31 C           6.3758   -1.1885    0.0000 C.3     1  UNL1        0.1624
     32 C           3.8060    1.6378    0.0000 C.ar    1  UNL1        0.0225
     33 C           3.7253    0.5993    0.0000 C.ar    1  UNL1        0.1271
     34 C           8.2180    0.5606    0.0000 C.ar    1  UNL1        0.1276
     35 C           9.8261    1.8628    0.0000 C.ar    1  UNL1        0.0222
     36 C           8.2828    4.5771    0.0000 C.ar    1  UNL1       -0.0057
     37 C           6.6097    5.0254    0.0000 C.ar    1  UNL1       -0.0057
     38 C           7.2113   -1.7380    0.0000 C.ar    1  UNL1        0.0034
     39 C           9.1875    0.1798    0.0000 C.ar    1  UNL1        0.0218
     40 C           9.9970    0.8353    0.0000 C.ar    1  UNL1        0.1238
     41 C           6.8686    5.9913    0.0000 C.ar    1  UNL1        0.1625
     42 C           8.5416    5.5430    0.0000 C.ar    1  UNL1        0.1625
     43 C           7.1531   -2.7364    0.0000 C.ar    1  UNL1       -0.0095
     44 C           8.1050   -1.2893    0.0000 C.ar    1  UNL1       -0.0095
     45 C           7.8345    6.2501    0.0000 C.ar    1  UNL1        0.2006
     46 C           4.4414   -3.1113    0.0000 C.2     1  UNL1        0.3398
     47 C           8.9404   -1.8389    0.0000 C.ar    1  UNL1        0.1623
     48 C           7.9885   -3.2859    0.0000 C.ar    1  UNL1        0.1623
     49 C           8.8822   -2.8372    0.0000 C.ar    1  UNL1        0.2006
     50 C           4.3754   -4.1091    0.0000 C.ar    1  UNL1        0.0661
     51 C           3.4783   -4.5509    0.0000 C.ar    1  UNL1       -0.0023
     52 C           5.2066   -4.6651    0.0000 C.ar    1  UNL1       -0.0023
     53 C           5.1407   -5.6629    0.0000 C.ar    1  UNL1        0.1628
     54 C           3.4124   -5.5488    0.0000 C.ar    1  UNL1        0.1628
     55 C           4.2436   -6.1048    0.0000 C.ar    1  UNL1        0.2006
     56 H           7.3015    2.7499    0.0000 H       1  UNL1        0.0430
     57 H           6.8388    4.6765    0.0000 H       1  UNL1        0.0685
     58 H           3.9041   -0.9118    0.0000 H       1  UNL1        0.0353
     59 H           4.2512   -1.6306    0.0000 H       1  UNL1        0.0353
     60 H           4.8476   -1.9445    0.0000 H       1  UNL1        0.0778
     61 H           6.3386   -1.8074    0.0000 H       1  UNL1        0.0822
     62 H           3.2960    1.9904    0.0000 H       1  UNL1        0.0691
     63 H           5.2014    5.2010    0.0000 H       1  UNL1        0.2102
     64 H          10.3034    2.2586    0.0000 H       1  UNL1        0.0691
     65 H           8.7212    4.1387    0.0000 H       1  UNL1        0.0660
     66 H           6.0109    4.8649    0.0000 H       1  UNL1        0.0660
     67 H           9.2821   -0.4329    0.0000 H       1  UNL1        0.0691
     68 H           2.3122    0.5131    0.0000 H       1  UNL1        0.2921
     69 H           7.5235   -0.6732    0.0000 H       1  UNL1        0.2921
     70 H           6.5990   -3.0146    0.0000 H       1  UNL1        0.0659
     71 H           8.1411   -0.6704    0.0000 H       1  UNL1        0.0659
     72 H          11.4123    0.8726    0.0000 H       1  UNL1        0.2921
     73 H           6.3219    7.2973    0.0000 H       1  UNL1        0.2923
     74 H           9.9459    5.3634    0.0000 H       1  UNL1        0.2923
     75 H           8.6922    7.3765    0.0000 H       1  UNL1        0.2924
     76 H          10.3521   -1.7309    0.0000 H       1  UNL1        0.2923
     77 H           8.4483   -4.6250    0.0000 H       1  UNL1        0.2923
     78 H           2.9630   -4.2062    0.0000 H       1  UNL1        0.0663
     79 H           5.7628   -4.3912    0.0000 H       1  UNL1        0.0663
     80 H           9.6816   -4.0057    0.0000 H       1  UNL1        0.2924
     81 H           5.9310   -6.8376    0.0000 H       1  UNL1        0.2923
     82 H           2.0000   -5.6459    0.0000 H       1  UNL1        0.2923
     83 H           3.6215   -7.3765    0.0000 H       1  UNL1        0.2924
@<TRIPOS>BOND
     1     1    21    1
     2     1    24    1
     3     2    21    1
     4     2    26    1
     5     3    25    1
     6     3    31    1
     7     4    20    1
     8     4    63    1
     9     5    30    1
    10     5    46    1
    11     6    33    1
    12     6    68    1
    13     7    34    1
    14     7    69    1
    15     8    40    1
    16     8    72    1
    17     9    41    1
    18     9    73    1
    19    10    42    1
    20    10    74    1
    21    11    45    1
    22    11    75    1
    23    12    47    1
    24    12    76    1
    25    13    48    1
    26    13    77    1
    27    14    46    2
    28    15    49    1
    29    15    80    1
    30    16    53    1
    31    16    81    1
    32    17    54    1
    33    17    82    1
    34    18    55    1
    35    18    83    1
    36    19    20    1
    37    19    22    1
    38    19    23    1
    39    19    56    1
    40    20    21    1
    41    20    57    1
    42    21    28    1
    43    22    24   ar
    44    22    25   ar
    45    23    26   ar
    46    23    34   ar
    47    24    32   ar
    48    25    27   ar
    49    26    35   ar
    50    27    29    1
    51    27    33   ar
    52    28    36   ar
    53    28    37   ar
    54    29    30    1
    55    29    58    1
    56    29    59    1
    57    30    31    1
    58    30    60    1
    59    31    38    1
    60    31    61    1
    61    32    33   ar
    62    32    62    1
    63    34    39   ar
    64    35    40   ar
    65    35    64    1
    66    36    42   ar
    67    36    65    1
    68    37    41   ar
    69    37    66    1
    70    38    43   ar
    71    38    44   ar
    72    39    40   ar
    73    39    67    1
    74    41    45   ar
    75    42    45   ar
    76    43    48   ar
    77    43    70    1
    78    44    47   ar
    79    44    71    1
    80    46    50    1
    81    47    49   ar
    82    48    49   ar
    83    50    51   ar
    84    50    52   ar
    85    51    54   ar
    86    51    78    1
    87    52    53   ar
    88    52    79    1
    89    53    55   ar
    90    54    55   ar
