@<TRIPOS>MOLECULE
IMPHY006979
 38 40 0 0 0
SMALL
GASTEIGER

@<TRIPOS>ATOM
      1 O           2.6200    0.8660    0.0000 O.3     1  UNL1       -0.4804
      2 O           7.0342   -0.8660    0.0000 O.3     1  UNL1       -0.4804
      3 O           2.6200   -0.8660    0.0000 O.2     1  UNL1       -0.2507
      4 O           7.0342    0.8660    0.0000 O.2     1  UNL1       -0.2507
      5 C           4.8271   -0.7071    0.0000 C.3     1  UNL1        0.0111
      6 C           4.8271    0.7071    0.0000 C.3     1  UNL1        0.0111
      7 C           4.1200    0.0000    0.0000 C.3     1  UNL1        0.0713
      8 C           5.5342   -0.0000    0.0000 C.3     1  UNL1        0.0713
      9 C           4.8271   -1.7071    0.0000 C.ar    1  UNL1       -0.0427
     10 C           4.8271    1.7071    0.0000 C.ar    1  UNL1       -0.0427
     11 C           3.1200    0.0000    0.0000 C.2     1  UNL1        0.3090
     12 C           6.5342    0.0000    0.0000 C.2     1  UNL1        0.3090
     13 C           3.9611   -2.2071    0.0000 C.ar    1  UNL1       -0.0583
     14 C           5.6931    2.2071    0.0000 C.ar    1  UNL1       -0.0583
     15 C           5.6931   -2.2071    0.0000 C.ar    1  UNL1       -0.0583
     16 C           3.9611    2.2071    0.0000 C.ar    1  UNL1       -0.0583
     17 C           5.6931    3.2071    0.0000 C.ar    1  UNL1       -0.0615
     18 C           3.9611   -3.2071    0.0000 C.ar    1  UNL1       -0.0615
     19 C           3.9611    3.2071    0.0000 C.ar    1  UNL1       -0.0615
     20 C           5.6931   -3.2071    0.0000 C.ar    1  UNL1       -0.0615
     21 C           4.8271   -3.7071    0.0000 C.ar    1  UNL1       -0.0617
     22 C           4.8271    3.7071    0.0000 C.ar    1  UNL1       -0.0617
     23 H           5.3999   -0.9444    0.0000 H       1  UNL1        0.0365
     24 H           5.3999    0.9444    0.0000 H       1  UNL1        0.0365
     25 H           3.8827    0.5728    0.0000 H       1  UNL1        0.0426
     26 H           5.7715   -0.5728    0.0000 H       1  UNL1        0.0426
     27 H           3.4242   -1.8971    0.0000 H       1  UNL1        0.0620
     28 H           6.2301    1.8971    0.0000 H       1  UNL1        0.0620
     29 H           6.2301   -1.8971    0.0000 H       1  UNL1        0.0620
     30 H           3.4242    1.8971    0.0000 H       1  UNL1        0.0620
     31 H           7.6542   -0.8660    0.0000 H       1  UNL1        0.2951
     32 H           2.0000    0.8660    0.0000 H       1  UNL1        0.2951
     33 H           3.4242   -3.5171    0.0000 H       1  UNL1        0.0618
     34 H           6.2301    3.5171    0.0000 H       1  UNL1        0.0618
     35 H           6.2301   -3.5171    0.0000 H       1  UNL1        0.0618
     36 H           3.4242    3.5171    0.0000 H       1  UNL1        0.0618
     37 H           4.8271   -4.3271    0.0000 H       1  UNL1        0.0618
     38 H           4.8271    4.3271    0.0000 H       1  UNL1        0.0618
@<TRIPOS>BOND
     1     1    11    1
     2     1    32    1
     3     2    12    1
     4     2    31    1
     5     3    11    2
     6     4    12    2
     7     5     7    1
     8     5     8    1
     9     5     9    1
    10     5    23    1
    11     6     7    1
    12     6     8    1
    13     6    10    1
    14     6    24    1
    15     7    11    1
    16     7    25    1
    17     8    12    1
    18     8    26    1
    19     9    13   ar
    20     9    15   ar
    21    10    14   ar
    22    10    16   ar
    23    13    18   ar
    24    13    27    1
    25    14    17   ar
    26    14    28    1
    27    15    20   ar
    28    15    29    1
    29    16    19   ar
    30    16    30    1
    31    17    22   ar
    32    17    34    1
    33    18    21   ar
    34    18    33    1
    35    19    22   ar
    36    19    36    1
    37    20    21   ar
    38    20    35    1
    39    21    37    1
    40    22    38    1
