@<TRIPOS>MOLECULE
IMPHY007325
 60 62 0 0 0
SMALL
GASTEIGER

@<TRIPOS>ATOM
      1 O           4.2690   -0.5000    0.0000 O.3     1  UNL1       -0.3396
      2 O           6.0010   -0.5000    0.0000 O.3     1  UNL1       -0.3475
      3 O           6.0010   -2.5000    0.0000 O.3     1  UNL1       -0.4504
      4 O           4.2690   -3.5000    0.0000 O.3     1  UNL1       -0.3853
      5 O           2.5369   -2.5000    0.0000 O.3     1  UNL1       -0.3864
      6 O           2.5369    0.5000    0.0000 O.3     1  UNL1       -0.3924
      7 O           6.8671   -1.0000    0.0000 O.2     1  UNL1       -0.2456
      8 O           8.5991    4.0000    0.0000 O.3     1  UNL1       -0.5033
      9 O           6.8671    5.0000    0.0000 O.3     1  UNL1       -0.5033
     10 O          10.3312   -5.0000    0.0000 O.3     1  UNL1       -0.5033
     11 O          12.0632   -4.0000    0.0000 O.3     1  UNL1       -0.5033
     12 C           4.2690   -2.5000    0.0000 C.3     1  UNL1        0.1251
     13 C           3.4030   -2.0000    0.0000 C.3     1  UNL1        0.1130
     14 C           5.1350   -2.0000    0.0000 C.3     1  UNL1        0.1819
     15 C           3.4030   -1.0000    0.0000 C.3     1  UNL1        0.1131
     16 C           5.1350   -1.0000    0.0000 C.3     1  UNL1        0.1993
     17 C           2.5369   -0.5000    0.0000 C.3     1  UNL1        0.0730
     18 C           6.0010    0.5000    0.0000 C.3     1  UNL1        0.0548
     19 C           6.8671    1.0000    0.0000 C.3     1  UNL1       -0.0039
     20 C           6.8671   -2.0000    0.0000 C.2     1  UNL1        0.3324
     21 C           6.8671    2.0000    0.0000 C.ar    1  UNL1       -0.0415
     22 C           7.7331   -2.5000    0.0000 C.2     1  UNL1        0.0231
     23 C           7.7331    2.5000    0.0000 C.ar    1  UNL1       -0.0133
     24 C           6.0010    2.5000    0.0000 C.ar    1  UNL1       -0.0548
     25 C           8.5991   -2.0000    0.0000 C.2     1  UNL1       -0.0477
     26 C           7.7331    3.5000    0.0000 C.ar    1  UNL1        0.1585
     27 C           6.0010    3.5000    0.0000 C.ar    1  UNL1       -0.0163
     28 C           6.8671    4.0000    0.0000 C.ar    1  UNL1        0.1582
     29 C           9.4651   -2.5000    0.0000 C.ar    1  UNL1       -0.0211
     30 C           9.4651   -3.5000    0.0000 C.ar    1  UNL1       -0.0094
     31 C          10.3312   -2.0000    0.0000 C.ar    1  UNL1       -0.0509
     32 C          10.3312   -4.0000    0.0000 C.ar    1  UNL1        0.1588
     33 C          11.1972   -2.5000    0.0000 C.ar    1  UNL1       -0.0160
     34 C          11.1972   -3.5000    0.0000 C.ar    1  UNL1        0.1582
     35 H           4.8059   -2.8100    0.0000 H       1  UNL1        0.0659
     36 H           3.4030   -2.6200    0.0000 H       1  UNL1        0.0647
     37 H           5.6720   -1.6900    0.0000 H       1  UNL1        0.0813
     38 H           3.4030   -0.3800    0.0000 H       1  UNL1        0.0647
     39 H           5.1350   -0.3800    0.0000 H       1  UNL1        0.0949
     40 H           1.9264   -0.3923    0.0000 H       1  UNL1        0.0584
     41 H           2.3249   -1.0826    0.0000 H       1  UNL1        0.0584
     42 H           3.7320   -3.8100    0.0000 H       1  UNL1        0.2101
     43 H           2.0000   -2.1900    0.0000 H       1  UNL1        0.2100
     44 H           5.7890    1.0826    0.0000 H       1  UNL1        0.0564
     45 H           5.3905    0.3923    0.0000 H       1  UNL1        0.0564
     46 H           7.0791    0.4174    0.0000 H       1  UNL1        0.0335
     47 H           7.4776    1.1077    0.0000 H       1  UNL1        0.0335
     48 H           2.0000    0.8100    0.0000 H       1  UNL1        0.2095
     49 H           7.7331   -3.1200    0.0000 H       1  UNL1        0.0689
     50 H           8.2700    2.1900    0.0000 H       1  UNL1        0.0658
     51 H           5.4641    2.1900    0.0000 H       1  UNL1        0.0621
     52 H           8.5991   -1.3800    0.0000 H       1  UNL1        0.0626
     53 H           5.4641    3.8100    0.0000 H       1  UNL1        0.0655
     54 H           8.9282   -3.8100    0.0000 H       1  UNL1        0.0661
     55 H          10.3312   -1.3800    0.0000 H       1  UNL1        0.0625
     56 H           9.1360    3.6900    0.0000 H       1  UNL1        0.2923
     57 H           6.3301    5.3100    0.0000 H       1  UNL1        0.2923
     58 H          11.7341   -2.1900    0.0000 H       1  UNL1        0.0655
     59 H          10.8681   -5.3100    0.0000 H       1  UNL1        0.2923
     60 H          12.6002   -3.6900    0.0000 H       1  UNL1        0.2923
@<TRIPOS>BOND
     1     1    15    1
     2     1    16    1
     3    16     2    1
     4     2    18    1
     5    14     3    1
     6     3    20    1
     7    12     4    1
     8     4    42    1
     9    13     5    1
    10     5    43    1
    11     6    17    1
    12     6    48    1
    13     7    20    2
    14     8    26    1
    15     8    56    1
    16     9    28    1
    17     9    57    1
    18    10    32    1
    19    10    59    1
    20    11    34    1
    21    11    60    1
    22    12    13    1
    23    12    14    1
    24    12    35    1
    25    13    15    1
    26    13    36    1
    27    14    16    1
    28    14    37    1
    29    15    17    1
    30    15    38    1
    31    16    39    1
    32    17    40    1
    33    17    41    1
    34    18    19    1
    35    18    44    1
    36    18    45    1
    37    19    21    1
    38    19    46    1
    39    19    47    1
    40    20    22    1
    41    21    23   ar
    42    21    24   ar
    43    22    25    2
    44    22    49    1
    45    23    26   ar
    46    23    50    1
    47    24    27   ar
    48    24    51    1
    49    25    29    1
    50    25    52    1
    51    26    28   ar
    52    27    28   ar
    53    27    53    1
    54    29    30   ar
    55    29    31   ar
    56    30    32   ar
    57    30    54    1
    58    31    33   ar
    59    31    55    1
    60    32    34   ar
    61    33    34   ar
    62    33    58    1
