@<TRIPOS>MOLECULE
IMPHY004389
 30 32 0 0 0
SMALL
GASTEIGER

@<TRIPOS>ATOM
      1 O           2.6720   -0.0503    0.0000 O.3     1  UNL1       -0.4950
      2 N           8.7040   -0.2619    0.0000 N.pl3   1  UNL1       -0.3453
      3 N           6.1767    0.8623    0.0000 N.2     1  UNL1       -0.2454
      4 C           6.6767   -0.6766    0.0000 C.2     1  UNL1       -0.0099
      5 C           7.3617   -1.4613    0.0000 C.3     1  UNL1       -0.0095
      6 C           6.9857    0.2745    0.0000 C.2     1  UNL1        0.0847
      7 C           8.3822   -1.2526    0.0000 C.3     1  UNL1        0.0130
      8 C           5.6767   -0.6766    0.0000 C.ar    1  UNL1        0.0059
      9 C           8.0011    0.5067    0.0000 C.2     1  UNL1        0.0268
     10 C           5.3677    0.2745    0.0000 C.ar    1  UNL1        0.0755
     11 C           4.9917   -1.4613    0.0000 C.ar    1  UNL1       -0.0488
     12 C           4.3523    0.5067    0.0000 C.ar    1  UNL1        0.0060
     13 C           8.2991    1.4613    0.0000 C.3     1  UNL1       -0.0247
     14 C           3.6493   -0.2619    0.0000 C.ar    1  UNL1        0.1221
     15 C           3.9712   -1.2526    0.0000 C.ar    1  UNL1       -0.0193
     16 C           2.0000   -0.7908    0.0000 C.3     1  UNL1        0.0788
     17 H           6.8317   -1.7831    0.0000 H       1  UNL1        0.0329
     18 H           7.5880   -2.0385    0.0000 H       1  UNL1        0.0329
     19 H           8.4006   -1.8723    0.0000 H       1  UNL1        0.0464
     20 H           8.9959   -1.3405    0.0000 H       1  UNL1        0.0464
     21 H           9.3100   -0.1307    0.0000 H       1  UNL1        0.1458
     22 H           5.1901   -2.0487    0.0000 H       1  UNL1        0.0625
     23 H           4.1675    1.0986    0.0000 H       1  UNL1        0.0676
     24 H           8.8909    1.2765    0.0000 H       1  UNL1        0.0290
     25 H           8.4839    2.0531    0.0000 H       1  UNL1        0.0290
     26 H           7.7073    1.6461    0.0000 H       1  UNL1        0.0290
     27 H           3.5581   -1.7149    0.0000 H       1  UNL1        0.0654
     28 H           1.5408   -0.3742    0.0000 H       1  UNL1        0.0660
     29 H           1.5834   -1.2500    0.0000 H       1  UNL1        0.0660
     30 H           2.4592   -1.2075    0.0000 H       1  UNL1        0.0660
@<TRIPOS>BOND
     1     1    14    1
     2     1    16    1
     3     2     7    1
     4     2     9    1
     5     2    21    1
     6     3     6    1
     7     3    10    2
     8     4     5    1
     9     4     6    1
    10     4     8    2
    11     5     7    1
    12     5    17    1
    13     5    18    1
    14     6     9    2
    15     7    19    1
    16     7    20    1
    17     8    10   ar
    18     8    11   ar
    19     9    13    1
    20    10    12   ar
    21    11    15   ar
    22    11    22    1
    23    12    14   ar
    24    12    23    1
    25    13    24    1
    26    13    25    1
    27    13    26    1
    28    14    15   ar
    29    15    27    1
    30    16    28    1
    31    16    29    1
    32    16    30    1
