@<TRIPOS>MOLECULE
IMPHY017735
 33 33 0 0 0
SMALL
GASTEIGER

@<TRIPOS>ATOM
      1 O           3.7601   -0.8341    0.0000 O.3     1  UNL1       -0.4613
      2 O           2.0000   -0.5553    0.0000 O.2     1  UNL1       -0.2508
      3 C           4.5691   -0.2463    0.0000 C.3     1  UNL1        0.1036
      4 C           5.5202   -0.5553    0.0000 C.3     1  UNL1       -0.0157
      5 C           6.2633    0.1138    0.0000 C.3     1  UNL1       -0.0497
      6 C           4.2601    0.7048    0.0000 C.3     1  UNL1       -0.0056
      7 C           7.2144   -0.1952    0.0000 C.3     1  UNL1       -0.0529
      8 C           7.9575    0.4739    0.0000 C.3     1  UNL1       -0.0531
      9 C           3.2601    0.7048    0.0000 C.3     1  UNL1        0.0483
     10 C           8.9086    0.1649    0.0000 C.3     1  UNL1       -0.0533
     11 C           2.9511   -0.2463    0.0000 C.2     1  UNL1        0.3075
     12 C           9.6517    0.8341    0.0000 C.3     1  UNL1       -0.0559
     13 C          10.6028    0.5250    0.0000 C.3     1  UNL1       -0.0653
     14 H           4.6661   -0.8586    0.0000 H       1  UNL1        0.0734
     15 H           5.2291   -1.1027    0.0000 H       1  UNL1        0.0301
     16 H           6.0087   -0.9370    0.0000 H       1  UNL1        0.0301
     17 H           6.5544    0.6613    0.0000 H       1  UNL1        0.0266
     18 H           5.7747    0.4955    0.0000 H       1  UNL1        0.0266
     19 H           4.8665    0.8337    0.0000 H       1  UNL1        0.0306
     20 H           4.1953    1.3214    0.0000 H       1  UNL1        0.0306
     21 H           6.9233   -0.7426    0.0000 H       1  UNL1        0.0265
     22 H           7.7029   -0.5769    0.0000 H       1  UNL1        0.0265
     23 H           8.2486    1.0214    0.0000 H       1  UNL1        0.0265
     24 H           7.4689    0.8557    0.0000 H       1  UNL1        0.0265
     25 H           3.3249    1.3214    0.0000 H       1  UNL1        0.0379
     26 H           2.6536    0.8337    0.0000 H       1  UNL1        0.0379
     27 H           8.6175   -0.3825    0.0000 H       1  UNL1        0.0265
     28 H           9.3971   -0.2168    0.0000 H       1  UNL1        0.0265
     29 H           9.9428    1.3815    0.0000 H       1  UNL1        0.0263
     30 H           9.1631    1.2158    0.0000 H       1  UNL1        0.0263
     31 H          10.4112   -0.0646    0.0000 H       1  UNL1        0.0230
     32 H          11.1924    0.3335    0.0000 H       1  UNL1        0.0230
     33 H          10.7943    1.1147    0.0000 H       1  UNL1        0.0230
@<TRIPOS>BOND
     1     1     3    1
     2     1    11    1
     3     2    11    2
     4     3     4    1
     5     3     6    1
     6     3    14    1
     7     4     5    1
     8     4    15    1
     9     4    16    1
    10     5     7    1
    11     5    17    1
    12     5    18    1
    13     6     9    1
    14     6    19    1
    15     6    20    1
    16     7     8    1
    17     7    21    1
    18     7    22    1
    19     8    10    1
    20     8    23    1
    21     8    24    1
    22     9    11    1
    23     9    25    1
    24     9    26    1
    25    10    12    1
    26    10    27    1
    27    10    28    1
    28    12    13    1
    29    12    29    1
    30    12    30    1
    31    13    31    1
    32    13    32    1
    33    13    33    1
