@<TRIPOS>MOLECULE
IMPHY003118
 37 40 0 0 0
SMALL
GASTEIGER

@<TRIPOS>ATOM
      1 O           7.7011    0.1685    0.0000 O.3     1  UNL1       -0.3404
      2 O           6.6281    2.4163    0.0000 O.3     1  UNL1       -0.4509
      3 O           6.5535   -0.0798    0.0000 O.3     1  UNL1       -0.3592
      4 O           5.8612   -0.0551    0.0000 O.3     1  UNL1       -0.3731
      5 O           9.0300    2.3785    0.0000 O.3     1  UNL1       -0.3856
      6 O           4.8484    2.3261    0.0000 O.2     1  UNL1       -0.2473
      7 N           4.6783   -1.8269    0.0000 N.ar    1  UNL1       -0.3604
      8 C           6.9618    0.8330    0.0000 C.3     1  UNL1        0.2486
      9 C           7.3701    1.7458    0.0000 C.3     1  UNL1        0.1876
     10 C           5.9674    0.9393    0.0000 C.3     1  UNL1        0.2240
     11 C           8.3583    1.6377    0.0000 C.3     1  UNL1        0.1206
     12 C           4.9889    0.7330    0.0000 C.3     1  UNL1        0.0192
     13 C           8.5624    0.6648    0.0000 C.3     1  UNL1        0.0807
     14 C           5.7612    1.9178    0.0000 C.2     1  UNL1        0.3456
     15 C           4.6783   -0.2175    0.0000 C.ar    1  UNL1       -0.0189
     16 C           3.7320   -0.5222    0.0000 C.ar    1  UNL1        0.0029
     17 C           5.2619   -1.0222    0.0000 C.ar    1  UNL1        0.0060
     18 C           3.7320   -1.5222    0.0000 C.ar    1  UNL1        0.0467
     19 C           2.8660   -0.0222    0.0000 C.ar    1  UNL1       -0.0523
     20 C           2.8660   -2.0222    0.0000 C.ar    1  UNL1       -0.0378
     21 C           2.0000   -0.5222    0.0000 C.ar    1  UNL1       -0.0611
     22 C           2.0000   -1.5222    0.0000 C.ar    1  UNL1       -0.0598
     23 H           7.7182    2.5213    0.0000 H       1  UNL1        0.0817
     24 H           8.1383    2.2174    0.0000 H       1  UNL1        0.0655
     25 H           4.9684    1.3527    0.0000 H       1  UNL1        0.0349
     26 H           4.3751    0.8204    0.0000 H       1  UNL1        0.0349
     27 H           8.8138    0.0980    0.0000 H       1  UNL1        0.0588
     28 H           9.1525    0.8552    0.0000 H       1  UNL1        0.0588
     29 H           6.9170   -0.5820    0.0000 H       1  UNL1        0.2130
     30 H           5.2944   -0.3063    0.0000 H       1  UNL1        0.2111
     31 H           9.6360    2.2475    0.0000 H       1  UNL1        0.2100
     32 H           5.8819   -1.0222    0.0000 H       1  UNL1        0.0810
     33 H           4.8709   -2.4163    0.0000 H       1  UNL1        0.1653
     34 H           2.8660    0.5978    0.0000 H       1  UNL1        0.0624
     35 H           2.8660   -2.6422    0.0000 H       1  UNL1        0.0638
     36 H           1.4631   -0.2122    0.0000 H       1  UNL1        0.0618
     37 H           1.4631   -1.8322    0.0000 H       1  UNL1        0.0618
@<TRIPOS>BOND
     1     1     8    1
     2     1    13    1
     3     2     9    1
     4     2    14    1
     5     8     3    1
     6     3    29    1
     7     4    10    1
     8     4    30    1
     9    11     5    1
    10     5    31    1
    11     6    14    2
    12     7    17   ar
    13     7    18   ar
    14     7    33    1
    15     8     9    1
    16     8    10    1
    17     9    11    1
    18     9    23    1
    19    10    12    1
    20    10    14    1
    21    11    13    1
    22    11    24    1
    23    12    15    1
    24    12    25    1
    25    12    26    1
    26    13    27    1
    27    13    28    1
    28    15    16   ar
    29    15    17   ar
    30    16    18   ar
    31    16    19   ar
    32    17    32    1
    33    18    20   ar
    34    19    21   ar
    35    19    34    1
    36    20    22   ar
    37    20    35    1
    38    21    22   ar
    39    21    36    1
    40    22    37    1
