@<TRIPOS>MOLECULE
IMPHY000733
 87 91 0 0 0
SMALL
GASTEIGER

@<TRIPOS>ATOM
      1 O          10.5680    0.2399    0.0000 O.2     1  UNL1       -0.2917
      2 O          14.2741   -2.8426    0.0000 O.3     1  UNL1       -0.5064
      3 O           9.8100   -3.5746    0.0000 O.3     1  UNL1       -0.5056
      4 O           9.8100   -0.1105    0.0000 O.3     1  UNL1       -0.5064
      5 O          16.0062    0.1574    0.0000 O.3     1  UNL1       -0.5066
      6 O          11.9355    3.0086    0.0000 O.3     1  UNL1       -0.5063
      7 O          14.5892    0.7819    0.0000 O.3     1  UNL1       -0.5063
      8 O           8.3100   -4.4406    0.0000 O.2     1  UNL1       -0.2872
      9 O           2.3100   -4.4407    0.0000 O.3     1  UNL1       -0.5068
     10 C          11.6760   -1.3426    0.0000 C.3     1  UNL1        0.0398
     11 C          12.5421   -1.8426    0.0000 C.3     1  UNL1        0.0019
     12 C          10.8100   -1.8426    0.0000 C.3     1  UNL1        0.0198
     13 C          12.5421   -2.8426    0.0000 C.3     1  UNL1       -0.0244
     14 C          11.6760   -3.3426    0.0000 C.2     1  UNL1       -0.0753
     15 C          10.8100   -2.8426    0.0000 C.2     1  UNL1       -0.0767
     16 C          13.4081   -1.3426    0.0000 C.ar    1  UNL1       -0.0016
     17 C           9.8100   -1.8426    0.0000 C.ar    1  UNL1        0.0436
     18 C          11.3340   -0.4029    0.0000 C.2     1  UNL1        0.1679
     19 C          11.6760   -4.3426    0.0000 C.3     1  UNL1       -0.0437
     20 C          11.9768    0.3631    0.0000 C.ar    1  UNL1        0.0246
     21 C          14.2741   -1.8426    0.0000 C.ar    1  UNL1        0.1238
     22 C           9.3100   -2.7085    0.0000 C.ar    1  UNL1        0.1348
     23 C          13.4081   -0.3426    0.0000 C.ar    1  UNL1       -0.0514
     24 C           9.3100   -0.9766    0.0000 C.ar    1  UNL1        0.1241
     25 C           8.3100   -2.7086    0.0000 C.ar    1  UNL1        0.0635
     26 C          15.1401   -1.3426    0.0000 C.ar    1  UNL1        0.0216
     27 C          14.2741    0.1574    0.0000 C.ar    1  UNL1       -0.0197
     28 C           8.3100   -0.9766    0.0000 C.ar    1  UNL1       -0.0190
     29 C          12.9616    0.1895    0.0000 C.ar    1  UNL1       -0.0092
     30 C          11.6348    1.3028    0.0000 C.ar    1  UNL1       -0.0092
     31 C           7.8100   -1.8426    0.0000 C.ar    1  UNL1       -0.0440
     32 C          15.1401   -0.3426    0.0000 C.ar    1  UNL1        0.1203
     33 C          12.2776    2.0689    0.0000 C.ar    1  UNL1        0.1245
     34 C          13.6044    0.9555    0.0000 C.ar    1  UNL1        0.1245
     35 C          13.2624    1.8952    0.0000 C.ar    1  UNL1        0.0391
     36 C           7.8100   -3.5746    0.0000 C.2     1  UNL1        0.1896
     37 C          13.9052    2.6613    0.0000 C.3     1  UNL1       -0.0023
     38 C           6.8100   -3.5746    0.0000 C.2     1  UNL1       -0.0137
     39 C          13.5631    3.6010    0.0000 C.2     1  UNL1       -0.0807
     40 C           6.3100   -4.4406    0.0000 C.2     1  UNL1       -0.0510
     41 C          14.2059    4.3670    0.0000 C.2     1  UNL1       -0.0793
     42 C           5.3100   -4.4407    0.0000 C.ar    1  UNL1       -0.0247
     43 C          13.8639    5.3067    0.0000 C.3     1  UNL1       -0.0440
     44 C          15.1907    4.1934    0.0000 C.3     1  UNL1       -0.0440
     45 C           4.8100   -5.3066    0.0000 C.ar    1  UNL1       -0.0511
     46 C           4.8100   -3.5746    0.0000 C.ar    1  UNL1       -0.0511
     47 C           3.8100   -5.3067    0.0000 C.ar    1  UNL1       -0.0196
     48 C           3.8100   -3.5746    0.0000 C.ar    1  UNL1       -0.0196
     49 C           3.3100   -4.4407    0.0000 C.ar    1  UNL1        0.1169
     50 H          12.1510   -0.9441    0.0000 H       1  UNL1        0.0396
     51 H          12.5421   -0.9926    0.0000 H       1  UNL1        0.0360
     52 H          10.5900   -1.0216    0.0000 H       1  UNL1        0.0401
     53 H          12.7541   -3.4252    0.0000 H       1  UNL1        0.0316
     54 H          13.1526   -2.7349    0.0000 H       1  UNL1        0.0316
     55 H          10.2731   -3.1526    0.0000 H       1  UNL1        0.0578
     56 H          11.0560   -4.3426    0.0000 H       1  UNL1        0.0274
     57 H          11.6760   -4.9626    0.0000 H       1  UNL1        0.0274
     58 H          12.2960   -4.3426    0.0000 H       1  UNL1        0.0274
     59 H          12.8711   -0.0326    0.0000 H       1  UNL1        0.0623
     60 H          15.6771   -1.6526    0.0000 H       1  UNL1        0.0691
     61 H          14.2741    0.7774    0.0000 H       1  UNL1        0.0654
     62 H           8.0000   -0.4396    0.0000 H       1  UNL1        0.0654
     63 H          13.1737   -0.3931    0.0000 H       1  UNL1        0.0661
     64 H          11.0242    1.4105    0.0000 H       1  UNL1        0.0661
     65 H           7.1900   -1.8426    0.0000 H       1  UNL1        0.0627
     66 H          14.8110   -3.1526    0.0000 H       1  UNL1        0.2921
     67 H           9.5000   -4.1116    0.0000 H       1  UNL1        0.2922
     68 H           9.5000    0.4264    0.0000 H       1  UNL1        0.2921
     69 H          14.3037    2.1863    0.0000 H       1  UNL1        0.0358
     70 H          14.4421    2.9713    0.0000 H       1  UNL1        0.0358
     71 H          16.5431   -0.1526    0.0000 H       1  UNL1        0.2921
     72 H           6.5000   -3.0377    0.0000 H       1  UNL1        0.0656
     73 H          11.3250    3.1162    0.0000 H       1  UNL1        0.2921
     74 H          14.9877    1.2568    0.0000 H       1  UNL1        0.2921
     75 H          12.9526    3.7086    0.0000 H       1  UNL1        0.0575
     76 H           6.6200   -4.9775    0.0000 H       1  UNL1        0.0625
     77 H          14.4465    5.5188    0.0000 H       1  UNL1        0.0274
     78 H          13.6519    5.8893    0.0000 H       1  UNL1        0.0274
     79 H          13.2813    5.0946    0.0000 H       1  UNL1        0.0274
     80 H          15.0831    3.5828    0.0000 H       1  UNL1        0.0274
     81 H          15.8013    4.0857    0.0000 H       1  UNL1        0.0274
     82 H          15.2984    4.8039    0.0000 H       1  UNL1        0.0274
     83 H           5.1200   -5.8435    0.0000 H       1  UNL1        0.0625
     84 H           5.1200   -3.0377    0.0000 H       1  UNL1        0.0625
     85 H           3.5000   -5.8436    0.0000 H       1  UNL1        0.0654
     86 H           3.5000   -3.0377    0.0000 H       1  UNL1        0.0654
     87 H           2.0000   -4.9776    0.0000 H       1  UNL1        0.2921
@<TRIPOS>BOND
     1     1    18    2
     2     2    21    1
     3     2    66    1
     4     3    22    1
     5     3    67    1
     6     4    24    1
     7     4    68    1
     8     5    32    1
     9     5    71    1
    10     6    33    1
    11     6    73    1
    12     7    34    1
    13     7    74    1
    14     8    36    2
    15     9    49    1
    16     9    87    1
    17    10    11    1
    18    10    12    1
    19    10    18    1
    20    10    50    1
    21    11    13    1
    22    11    16    1
    23    11    51    1
    24    12    15    1
    25    12    17    1
    26    12    52    1
    27    13    14    1
    28    13    53    1
    29    13    54    1
    30    14    15    2
    31    14    19    1
    32    15    55    1
    33    16    21   ar
    34    16    23   ar
    35    17    22   ar
    36    17    24   ar
    37    18    20    1
    38    19    56    1
    39    19    57    1
    40    19    58    1
    41    20    29   ar
    42    20    30   ar
    43    21    26   ar
    44    22    25   ar
    45    23    27   ar
    46    23    59    1
    47    24    28   ar
    48    25    31   ar
    49    25    36    1
    50    26    32   ar
    51    26    60    1
    52    27    32   ar
    53    27    61    1
    54    28    31   ar
    55    28    62    1
    56    29    34   ar
    57    29    63    1
    58    30    33   ar
    59    30    64    1
    60    31    65    1
    61    33    35   ar
    62    34    35   ar
    63    35    37    1
    64    36    38    1
    65    37    39    1
    66    37    69    1
    67    37    70    1
    68    38    40    2
    69    38    72    1
    70    39    41    2
    71    39    75    1
    72    40    42    1
    73    40    76    1
    74    41    43    1
    75    41    44    1
    76    42    45   ar
    77    42    46   ar
    78    43    77    1
    79    43    78    1
    80    43    79    1
    81    44    80    1
    82    44    81    1
    83    44    82    1
    84    45    47   ar
    85    45    83    1
    86    46    48   ar
    87    46    84    1
    88    47    49   ar
    89    47    85    1
    90    48    49   ar
    91    48    86    1
