@<TRIPOS>MOLECULE
IMPHY005942
 37 37 0 0 0
SMALL
GASTEIGER

@<TRIPOS>ATOM
      1 O           3.8660    2.0000    0.0000 O.2     1  UNL1       -0.2927
      2 C           3.0000   -1.5000    0.0000 C.3     1  UNL1       -0.0247
      3 C           3.8660   -1.0000    0.0000 C.3     1  UNL1        0.0034
      4 C           3.0000   -2.5000    0.0000 C.3     1  UNL1       -0.0436
      5 C           3.8660   -3.0000    0.0000 C.3     1  UNL1       -0.0340
      6 C           4.7320   -1.5000    0.0000 C.2     1  UNL1       -0.0692
      7 C           2.0000   -1.5000    0.0000 C.3     1  UNL1       -0.0590
      8 C           2.5000   -0.6340    0.0000 C.3     1  UNL1       -0.0590
      9 C           4.7320   -2.5000    0.0000 C.2     1  UNL1       -0.0844
     10 C           3.8660    0.0000    0.0000 C.2     1  UNL1       -0.0731
     11 C           5.5981   -1.0000    0.0000 C.3     1  UNL1       -0.0432
     12 C           4.7320    0.5000    0.0000 C.2     1  UNL1       -0.0226
     13 C           4.7320    1.5000    0.0000 C.2     1  UNL1        0.1556
     14 C           5.5981    2.0000    0.0000 C.3     1  UNL1        0.0070
     15 C           5.5981    3.0000    0.0000 C.3     1  UNL1       -0.0583
     16 H           4.4030   -0.6900    0.0000 H       1  UNL1        0.0393
     17 H           2.3894   -2.3923    0.0000 H       1  UNL1        0.0274
     18 H           2.7880   -3.0826    0.0000 H       1  UNL1        0.0274
     19 H           3.4675   -3.4750    0.0000 H       1  UNL1        0.0308
     20 H           4.2646   -3.4750    0.0000 H       1  UNL1        0.0308
     21 H           2.0000   -0.8800    0.0000 H       1  UNL1        0.0235
     22 H           1.3800   -1.5000    0.0000 H       1  UNL1        0.0235
     23 H           2.0000   -2.1200    0.0000 H       1  UNL1        0.0235
     24 H           3.0369   -0.3240    0.0000 H       1  UNL1        0.0235
     25 H           2.1900   -0.0970    0.0000 H       1  UNL1        0.0235
     26 H           1.9631   -0.9440    0.0000 H       1  UNL1        0.0235
     27 H           5.2690   -2.8100    0.0000 H       1  UNL1        0.0572
     28 H           3.3291    0.3100    0.0000 H       1  UNL1        0.0579
     29 H           5.9081   -1.5369    0.0000 H       1  UNL1        0.0275
     30 H           6.1350   -0.6900    0.0000 H       1  UNL1        0.0275
     31 H           5.2881   -0.4631    0.0000 H       1  UNL1        0.0275
     32 H           5.2690    0.1900    0.0000 H       1  UNL1        0.0649
     33 H           5.8101    1.4174    0.0000 H       1  UNL1        0.0342
     34 H           6.2087    2.1077    0.0000 H       1  UNL1        0.0342
     35 H           6.2181    3.0000    0.0000 H       1  UNL1        0.0234
     36 H           5.5981    3.6200    0.0000 H       1  UNL1        0.0234
     37 H           4.9781    3.0000    0.0000 H       1  UNL1        0.0234
@<TRIPOS>BOND
     1     1    13    2
     2     2     3    1
     3     2     4    1
     4     2     7    1
     5     2     8    1
     6     3     6    1
     7     3    10    1
     8     3    16    1
     9     4     5    1
    10     4    17    1
    11     4    18    1
    12     5     9    1
    13     5    19    1
    14     5    20    1
    15     6     9    2
    16     6    11    1
    17     7    21    1
    18     7    22    1
    19     7    23    1
    20     8    24    1
    21     8    25    1
    22     8    26    1
    23     9    27    1
    24    10    12    2
    25    10    28    1
    26    11    29    1
    27    11    30    1
    28    11    31    1
    29    12    13    1
    30    12    32    1
    31    13    14    1
    32    14    15    1
    33    14    33    1
    34    14    34    1
    35    15    35    1
    36    15    36    1
    37    15    37    1
