@<TRIPOS>MOLECULE
IMPHY007937
 144 150 0 0 0
SMALL
GASTEIGER

@<TRIPOS>ATOM
      1 O          18.6473    1.8529    0.0000 O.3     1  UNL1       -0.3876
      2 O          17.7678   -1.6437    0.0000 O.3     1  UNL1       -0.4569
      3 O          16.0396   -0.6370    0.0000 O.3     1  UNL1       -0.4575
      4 O          13.2583    2.9260    0.0000 O.3     1  UNL1       -0.3477
      5 O          20.1165   -2.1038    0.0000 O.2     1  UNL1       -0.2974
      6 O          19.2645   -2.5155    0.0000 O.2     1  UNL1       -0.2508
      7 O          16.8999   -2.1404    0.0000 O.2     1  UNL1       -0.2512
      8 O          11.5263    2.9260    0.0000 O.3     1  UNL1       -0.3456
      9 O          11.5263   -0.0740    0.0000 O.3     1  UNL1       -0.3770
     10 O           9.7942    0.9260    0.0000 O.3     1  UNL1       -0.3429
     11 O           8.9282    2.4260    0.0000 O.3     1  UNL1       -0.3456
     12 O           6.3301    0.9260    0.0000 O.3     1  UNL1       -0.3770
     13 O           6.3301    2.9260    0.0000 O.3     1  UNL1       -0.3403
     14 O           5.4641    1.4260    0.0000 O.3     1  UNL1       -0.3431
     15 O           4.5981    3.9260    0.0000 O.3     1  UNL1       -0.3841
     16 O           2.8660    2.9260    0.0000 O.3     1  UNL1       -0.3744
     17 O           2.8660    0.9260    0.0000 O.3     1  UNL1       -0.3866
     18 C          18.6396   -0.1471    0.0000 C.3     1  UNL1        0.0469
     19 C          18.6435    0.8529    0.0000 C.3     1  UNL1        0.0791
     20 C          17.7794    1.3563    0.0000 C.3     1  UNL1       -0.0010
     21 C          16.9114    0.8596    0.0000 C.3     1  UNL1        0.0145
     22 C          17.7717   -0.6437    0.0000 C.3     1  UNL1        0.1486
     23 C          16.0034    1.3700    0.0000 C.3     1  UNL1       -0.0043
     24 C          16.9076   -0.1404    0.0000 C.3     1  UNL1        0.1443
     25 C          19.5846   -0.4554    0.0000 C.3     1  UNL1        0.0288
     26 C          19.5909    1.1540    0.0000 C.3     1  UNL1       -0.0224
     27 C          20.1714    0.3470    0.0000 C.3     1  UNL1       -0.0402
     28 C          17.7994    2.3977    0.0000 C.3     1  UNL1       -0.0286
     29 C          18.6358   -1.1470    0.0000 C.3     1  UNL1       -0.0527
     30 C          15.9994    2.4116    0.0000 C.2     1  UNL1       -0.0647
     31 C          15.0744    0.8095    0.0000 C.3     1  UNL1       -0.0412
     32 C          16.9035    2.9289    0.0000 C.2     1  UNL1       -0.0838
     33 C          16.0072    0.3700    0.0000 C.3     1  UNL1       -0.0555
     34 C          15.0661    2.9649    0.0000 C.3     1  UNL1       -0.0047
     35 C          20.3264   -1.1261    0.0000 C.2     1  UNL1        0.1341
     36 C          14.1285    1.3410    0.0000 C.3     1  UNL1       -0.0254
     37 C          14.1244    2.4260    0.0000 C.3     1  UNL1        0.0654
     38 C          21.2781   -0.8191    0.0000 C.3     1  UNL1       -0.0058
     39 C          18.2645   -2.5117    0.0000 C.2     1  UNL1        0.3077
     40 C          16.0358   -1.6370    0.0000 C.2     1  UNL1        0.3043
     41 C          17.7611   -3.3758    0.0000 C.3     1  UNL1        0.0473
     42 C          12.3923    2.4260    0.0000 C.3     1  UNL1        0.1624
     43 C          15.1678   -2.1337    0.0000 C.3     1  UNL1        0.0332
     44 C          16.7612   -3.3719    0.0000 C.3     1  UNL1       -0.0367
     45 C          12.3923    1.4260    0.0000 C.3     1  UNL1        0.0272
     46 C          11.5263    0.9260    0.0000 C.3     1  UNL1        0.0915
     47 C          10.6603    2.4260    0.0000 C.3     1  UNL1        0.0875
     48 C          10.6603    1.4260    0.0000 C.3     1  UNL1        0.1137
     49 C          16.2579   -4.2360    0.0000 C.3     1  UNL1       -0.0622
     50 C          16.2645   -2.5040    0.0000 C.3     1  UNL1       -0.0622
     51 C           9.7942    2.9260    0.0000 C.3     1  UNL1       -0.0361
     52 C           8.9282    1.4260    0.0000 C.3     1  UNL1        0.1626
     53 C          12.3923   -0.5740    0.0000 C.3     1  UNL1        0.0369
     54 C           8.0622    0.9260    0.0000 C.3     1  UNL1        0.0272
     55 C           7.1962    1.4260    0.0000 C.3     1  UNL1        0.0915
     56 C           8.0622    2.9260    0.0000 C.3     1  UNL1        0.0875
     57 C           7.1962    2.4260    0.0000 C.3     1  UNL1        0.1138
     58 C           8.0622    3.9260    0.0000 C.3     1  UNL1       -0.0361
     59 C           5.4641    2.4260    0.0000 C.3     1  UNL1        0.1883
     60 C           4.5981    2.9260    0.0000 C.3     1  UNL1        0.1344
     61 C           6.3301   -0.0740    0.0000 C.3     1  UNL1        0.0369
     62 C           3.7320    2.4260    0.0000 C.3     1  UNL1        0.1170
     63 C           4.5981    0.9260    0.0000 C.3     1  UNL1        0.0873
     64 C           3.7320    1.4260    0.0000 C.3     1  UNL1        0.1097
     65 C           4.5981   -0.0740    0.0000 C.3     1  UNL1       -0.0361
     66 C           2.0000    2.4260    0.0000 C.3     1  UNL1        0.0370
     67 H          18.5204    1.7727    0.0000 H       1  UNL1        0.0336
     68 H          17.6459    0.4318    0.0000 H       1  UNL1        0.0350
     69 H          17.2335   -0.9516    0.0000 H       1  UNL1        0.0778
     70 H          16.3718    0.1717    0.0000 H       1  UNL1        0.0775
     71 H          19.2737   -0.9918    0.0000 H       1  UNL1        0.0385
     72 H          20.1294    1.4612    0.0000 H       1  UNL1        0.0293
     73 H          19.3420    1.7219    0.0000 H       1  UNL1        0.0293
     74 H          20.6306   -0.0695    0.0000 H       1  UNL1        0.0273
     75 H          20.6338    0.7600    0.0000 H       1  UNL1        0.0273
     76 H          18.4081    2.2799    0.0000 H       1  UNL1        0.0311
     77 H          18.0197    2.9773    0.0000 H       1  UNL1        0.0311
     78 H          18.0158   -1.1447    0.0000 H       1  UNL1        0.0237
     79 H          18.6334   -1.7670    0.0000 H       1  UNL1        0.0237
     80 H          19.2558   -1.1494    0.0000 H       1  UNL1        0.0237
     81 H          14.6826    0.3289    0.0000 H       1  UNL1        0.0274
     82 H          15.4808    0.3412    0.0000 H       1  UNL1        0.0274
     83 H          16.9082    3.5489    0.0000 H       1  UNL1        0.0572
     84 H          19.1854    2.1608    0.0000 H       1  UNL1        0.2102
     85 H          15.3872    0.3676    0.0000 H       1  UNL1        0.0238
     86 H          16.0096   -0.2500    0.0000 H       1  UNL1        0.0238
     87 H          16.6272    0.3724    0.0000 H       1  UNL1        0.0238
     88 H          15.4689    3.4362    0.0000 H       1  UNL1        0.0335
     89 H          14.6706    3.4424    0.0000 H       1  UNL1        0.0335
     90 H          13.5173    1.4448    0.0000 H       1  UNL1        0.0290
     91 H          13.9217    0.7566    0.0000 H       1  UNL1        0.0290
     92 H          13.5880    2.1150    0.0000 H       1  UNL1        0.0600
     93 H          21.4684   -1.4092    0.0000 H       1  UNL1        0.0306
     94 H          21.8681   -0.6288    0.0000 H       1  UNL1        0.0306
     95 H          21.0877   -0.2291    0.0000 H       1  UNL1        0.0306
     96 H          17.6511   -3.9859    0.0000 H       1  UNL1        0.0380
     97 H          18.3429   -3.5900    0.0000 H       1  UNL1        0.0380
     98 H          12.9292    2.1160    0.0000 H       1  UNL1        0.0910
     99 H          14.8599   -1.5956    0.0000 H       1  UNL1        0.0342
    100 H          14.6297   -2.4416    0.0000 H       1  UNL1        0.0342
    101 H          15.4758   -2.6718    0.0000 H       1  UNL1        0.0342
    102 H          17.0692   -3.9101    0.0000 H       1  UNL1        0.0301
    103 H          12.6044    0.8434    0.0000 H       1  UNL1        0.0340
    104 H          13.0029    1.5337    0.0000 H       1  UNL1        0.0340
    105 H          10.9893    0.6160    0.0000 H       1  UNL1        0.0624
    106 H          10.6603    3.0460    0.0000 H       1  UNL1        0.0621
    107 H          10.1233    1.7360    0.0000 H       1  UNL1        0.0649
    108 H          16.8026   -2.1960    0.0000 H       1  UNL1        0.0232
    109 H          15.9565   -1.9659    0.0000 H       1  UNL1        0.0232
    110 H          15.7264   -2.8119    0.0000 H       1  UNL1        0.0232
    111 H          15.7222   -3.9240    0.0000 H       1  UNL1        0.0232
    112 H          15.9458   -4.7718    0.0000 H       1  UNL1        0.0232
    113 H          16.7936   -4.5481    0.0000 H       1  UNL1        0.0232
    114 H          10.1042    3.4630    0.0000 H       1  UNL1        0.0255
    115 H           9.2573    3.2360    0.0000 H       1  UNL1        0.0255
    116 H           9.4842    2.3891    0.0000 H       1  UNL1        0.0255
    117 H           8.9282    0.8060    0.0000 H       1  UNL1        0.0910
    118 H          12.0823   -1.1109    0.0000 H       1  UNL1        0.0524
    119 H          12.9292   -0.8840    0.0000 H       1  UNL1        0.0524
    120 H          12.7023   -0.0370    0.0000 H       1  UNL1        0.0524
    121 H           7.6636    0.4511    0.0000 H       1  UNL1        0.0340
    122 H           8.4607    0.4511    0.0000 H       1  UNL1        0.0340
    123 H           6.6592    1.7360    0.0000 H       1  UNL1        0.0624
    124 H           8.5991    3.2360    0.0000 H       1  UNL1        0.0621
    125 H           7.1962    3.0460    0.0000 H       1  UNL1        0.0649
    126 H           8.6822    3.9260    0.0000 H       1  UNL1        0.0255
    127 H           8.0622    4.5460    0.0000 H       1  UNL1        0.0255
    128 H           7.4422    3.9260    0.0000 H       1  UNL1        0.0255
    129 H           5.4641    3.0460    0.0000 H       1  UNL1        0.0938
    130 H           4.0611    3.2360    0.0000 H       1  UNL1        0.0671
    131 H           5.7101   -0.0740    0.0000 H       1  UNL1        0.0524
    132 H           6.3301   -0.6940    0.0000 H       1  UNL1        0.0524
    133 H           6.9501   -0.0740    0.0000 H       1  UNL1        0.0524
    134 H           4.2941    3.0460    0.0000 H       1  UNL1        0.0650
    135 H           3.7320    0.8060    0.0000 H       1  UNL1        0.0646
    136 H           5.1350    0.6160    0.0000 H       1  UNL1        0.0621
    137 H           3.9781   -0.0740    0.0000 H       1  UNL1        0.0255
    138 H           4.5981   -0.6940    0.0000 H       1  UNL1        0.0255
    139 H           5.2181   -0.0740    0.0000 H       1  UNL1        0.0255
    140 H           4.0611    4.2360    0.0000 H       1  UNL1        0.2101
    141 H           2.8660    0.3060    0.0000 H       1  UNL1        0.2100
    142 H           1.6900    2.9630    0.0000 H       1  UNL1        0.0524
    143 H           1.4631    2.1160    0.0000 H       1  UNL1        0.0524
    144 H           2.3100    1.8891    0.0000 H       1  UNL1        0.0524
@<TRIPOS>BOND
     1    19     1    1
     2     1    84    1
     3    22     2    1
     4     2    39    1
     5    24     3    1
     6     3    40    1
     7    37     4    1
     8    42     4    1
     9     5    35    2
    10     6    39    2
    11     7    40    2
    12     8    42    1
    13     8    47    1
    14    46     9    1
    15     9    53    1
    16    48    10    1
    17    52    10    1
    18    11    52    1
    19    11    56    1
    20    55    12    1
    21    12    61    1
    22    57    13    1
    23    59    13    1
    24    14    59    1
    25    14    63    1
    26    60    15    1
    27    15   140    1
    28    62    16    1
    29    16    66    1
    30    64    17    1
    31    17   141    1
    32    18    19    1
    33    18    22    1
    34    18    25    1
    35    18    29    1
    36    19    20    1
    37    19    26    1
    38    20    21    1
    39    20    28    1
    40    20    67    1
    41    21    23    1
    42    21    24    1
    43    21    68    1
    44    22    24    1
    45    22    69    1
    46    23    30    1
    47    23    31    1
    48    23    33    1
    49    24    70    1
    50    25    27    1
    51    25    35    1
    52    25    71    1
    53    26    27    1
    54    26    72    1
    55    26    73    1
    56    27    74    1
    57    27    75    1
    58    28    32    1
    59    28    76    1
    60    28    77    1
    61    29    78    1
    62    29    79    1
    63    29    80    1
    64    30    32    2
    65    30    34    1
    66    31    36    1
    67    31    81    1
    68    31    82    1
    69    32    83    1
    70    33    85    1
    71    33    86    1
    72    33    87    1
    73    34    37    1
    74    34    88    1
    75    34    89    1
    76    35    38    1
    77    36    37    1
    78    36    90    1
    79    36    91    1
    80    37    92    1
    81    38    93    1
    82    38    94    1
    83    38    95    1
    84    39    41    1
    85    40    43    1
    86    41    44    1
    87    41    96    1
    88    41    97    1
    89    42    45    1
    90    42    98    1
    91    43    99    1
    92    43   100    1
    93    43   101    1
    94    44    49    1
    95    44    50    1
    96    44   102    1
    97    45    46    1
    98    45   103    1
    99    45   104    1
   100    46    48    1
   101    46   105    1
   102    47    48    1
   103    47    51    1
   104    47   106    1
   105    48   107    1
   106    49   111    1
   107    49   112    1
   108    49   113    1
   109    50   108    1
   110    50   109    1
   111    50   110    1
   112    51   114    1
   113    51   115    1
   114    51   116    1
   115    52    54    1
   116    52   117    1
   117    53   118    1
   118    53   119    1
   119    53   120    1
   120    54    55    1
   121    54   121    1
   122    54   122    1
   123    55    57    1
   124    55   123    1
   125    56    57    1
   126    56    58    1
   127    56   124    1
   128    57   125    1
   129    58   126    1
   130    58   127    1
   131    58   128    1
   132    59    60    1
   133    59   129    1
   134    60    62    1
   135    60   130    1
   136    61   131    1
   137    61   132    1
   138    61   133    1
   139    62    64    1
   140    62   134    1
   141    63    64    1
   142    63    65    1
   143    63   136    1
   144    64   135    1
   145    65   137    1
   146    65   138    1
   147    65   139    1
   148    66   142    1
   149    66   143    1
   150    66   144    1
