@<TRIPOS>MOLECULE
IMPHY016401
 31 31 0 0 0
SMALL
GASTEIGER

@<TRIPOS>ATOM
      1 O           3.7601   -0.0261    0.0000 O.3     1  UNL1       -0.4536
      2 O           2.0000    0.2526    0.0000 O.2     1  UNL1       -0.2453
      3 C           4.5691    0.5616    0.0000 C.3     1  UNL1        0.1249
      4 C           5.5202    0.2526    0.0000 C.3     1  UNL1       -0.0117
      5 C           5.7281   -0.7255    0.0000 C.3     1  UNL1       -0.0494
      6 C           4.2601    1.5127    0.0000 C.2     1  UNL1       -0.0230
      7 C           6.6791   -1.0346    0.0000 C.3     1  UNL1       -0.0532
      8 C           3.2601    1.5127    0.0000 C.2     1  UNL1        0.0359
      9 C           6.8870   -2.0127    0.0000 C.3     1  UNL1       -0.0559
     10 C           2.9511    0.5616    0.0000 C.2     1  UNL1        0.3355
     11 C           4.8479    2.3217    0.0000 C.3     1  UNL1       -0.0396
     12 C           2.6723    2.3217    0.0000 C.3     1  UNL1       -0.0329
     13 C           7.8381   -2.3217    0.0000 C.3     1  UNL1       -0.0653
     14 H           4.6661   -0.0507    0.0000 H       1  UNL1        0.0782
     15 H           6.1398    0.2743    0.0000 H       1  UNL1        0.0304
     16 H           5.6064    0.8666    0.0000 H       1  UNL1        0.0304
     17 H           5.1084   -0.7472    0.0000 H       1  UNL1        0.0267
     18 H           5.6418   -1.3395    0.0000 H       1  UNL1        0.0267
     19 H           7.2987   -1.0129    0.0000 H       1  UNL1        0.0265
     20 H           6.7654   -0.4206    0.0000 H       1  UNL1        0.0265
     21 H           6.2674   -2.0343    0.0000 H       1  UNL1        0.0263
     22 H           6.8007   -2.6267    0.0000 H       1  UNL1        0.0263
     23 H           5.3494    1.9573    0.0000 H       1  UNL1        0.0276
     24 H           5.2123    2.8233    0.0000 H       1  UNL1        0.0276
     25 H           4.3463    2.6861    0.0000 H       1  UNL1        0.0276
     26 H           3.1739    2.6861    0.0000 H       1  UNL1        0.0280
     27 H           2.3079    2.8233    0.0000 H       1  UNL1        0.0280
     28 H           2.1707    1.9573    0.0000 H       1  UNL1        0.0280
     29 H           7.6465   -2.9114    0.0000 H       1  UNL1        0.0230
     30 H           8.4277   -2.5133    0.0000 H       1  UNL1        0.0230
     31 H           8.0297   -1.7320    0.0000 H       1  UNL1        0.0230
@<TRIPOS>BOND
     1     1     3    1
     2     1    10    1
     3     2    10    2
     4     3     4    1
     5     3     6    1
     6     3    14    1
     7     4     5    1
     8     4    15    1
     9     4    16    1
    10     5     7    1
    11     5    17    1
    12     5    18    1
    13     6     8    2
    14     6    11    1
    15     7     9    1
    16     7    19    1
    17     7    20    1
    18     8    10    1
    19     8    12    1
    20     9    13    1
    21     9    21    1
    22     9    22    1
    23    11    23    1
    24    11    24    1
    25    11    25    1
    26    12    26    1
    27    12    27    1
    28    12    28    1
    29    13    29    1
    30    13    30    1
    31    13    31    1
