@<TRIPOS>MOLECULE
IMPHY002807
 41 42 0 0 0
SMALL
GASTEIGER

@<TRIPOS>ATOM
      1 S           5.5010    3.1144    0.0000 S.O2    1  UNL1        0.2080
      2 O           5.1350   -0.9244    0.0000 O.3     1  UNL1       -0.3405
      3 O           6.8671   -0.9244    0.0000 O.3     1  UNL1       -0.3241
      4 O           6.8671   -2.9244    0.0000 O.3     1  UNL1       -0.3841
      5 O           5.1350   -3.9244    0.0000 O.3     1  UNL1       -0.3864
      6 O           3.4030   -2.9244    0.0000 O.3     1  UNL1       -0.3865
      7 O           6.3671    2.6144    0.0000 O.3     1  UNL1       -0.2082
      8 O           2.5369   -1.4244    0.0000 O.3     1  UNL1       -0.3924
      9 O           4.6350    3.6144    0.0000 O.3     1  UNL1       -0.2311
     10 O           6.0010    3.9804    0.0000 O.2     1  UNL1       -0.1181
     11 O           5.0010    2.2484    0.0000 O.2     1  UNL1       -0.1181
     12 N           8.7692   -0.5425    0.0000 N.1     1  UNL1       -0.1932
     13 C           6.0010   -2.4244    0.0000 C.3     1  UNL1        0.1342
     14 C           5.1350   -2.9244    0.0000 C.3     1  UNL1        0.1141
     15 C           6.0010   -1.4244    0.0000 C.3     1  UNL1        0.1901
     16 C           4.2690   -2.4244    0.0000 C.3     1  UNL1        0.1119
     17 C           4.2690   -1.4244    0.0000 C.3     1  UNL1        0.1130
     18 C           6.8671    0.0756    0.0000 C.3     1  UNL1        0.1789
     19 C           7.1761    1.0266    0.0000 C.3     1  UNL1        0.0257
     20 C           6.3671    1.6144    0.0000 C.3     1  UNL1        0.1119
     21 C           3.4030   -0.9244    0.0000 C.3     1  UNL1        0.0730
     22 C           5.8671    0.0756    0.0000 C.2     1  UNL1       -0.0398
     23 C           5.5580    1.0266    0.0000 C.2     1  UNL1       -0.0534
     24 C           7.8181   -0.2334    0.0000 C.1     1  UNL1        0.1021
     25 H           6.0010   -3.0444    0.0000 H       1  UNL1        0.0671
     26 H           4.5981   -3.2344    0.0000 H       1  UNL1        0.0648
     27 H           6.0010   -0.8044    0.0000 H       1  UNL1        0.0938
     28 H           3.7320   -2.1144    0.0000 H       1  UNL1        0.0647
     29 H           4.2690   -0.8044    0.0000 H       1  UNL1        0.0647
     30 H           7.7425    0.7745    0.0000 H       1  UNL1        0.0336
     31 H           7.4861    1.5636    0.0000 H       1  UNL1        0.0336
     32 H           6.9195    1.8959    0.0000 H       1  UNL1        0.0667
     33 H           3.8015   -0.4495    0.0000 H       1  UNL1        0.0584
     34 H           3.0044   -0.4495    0.0000 H       1  UNL1        0.0584
     35 H           5.5026   -0.4260    0.0000 H       1  UNL1        0.0609
     36 H           4.9684    1.2182    0.0000 H       1  UNL1        0.0596
     37 H           6.8671   -3.5444    0.0000 H       1  UNL1        0.2101
     38 H           4.5981   -4.2344    0.0000 H       1  UNL1        0.2100
     39 H           3.4030   -3.5444    0.0000 H       1  UNL1        0.2100
     40 H           2.0000   -1.1144    0.0000 H       1  UNL1        0.2095
     41 H           4.6350    4.2344    0.0000 H       1  UNL1        0.2469
@<TRIPOS>BOND
     1     1     7    1
     2     1     9    1
     3     1    10    2
     4     1    11    2
     5     2    15    1
     6     2    17    1
     7    15     3    1
     8    18     3    1
     9    13     4    1
    10     4    37    1
    11    14     5    1
    12     5    38    1
    13    16     6    1
    14     6    39    1
    15    20     7    1
    16     8    21    1
    17     8    40    1
    18     9    41    1
    19    12    24    3
    20    13    14    1
    21    13    15    1
    22    13    25    1
    23    14    16    1
    24    14    26    1
    25    15    27    1
    26    16    17    1
    27    16    28    1
    28    17    21    1
    29    17    29    1
    30    18    19    1
    31    18    22    1
    32    18    24    1
    33    19    20    1
    34    19    30    1
    35    19    31    1
    36    20    23    1
    37    20    32    1
    38    21    33    1
    39    21    34    1
    40    22    23    2
    41    22    35    1
    42    23    36    1
