@<TRIPOS>MOLECULE
IMPHY007865
 84 88 0 0 0
SMALL
GASTEIGER

@<TRIPOS>ATOM
      1 O           2.5381   -3.1815    0.0000 O.3     1  UNL1       -0.3915
      2 C           6.0682   -1.1574    0.0000 C.3     1  UNL1       -0.0194
      3 C           5.2022   -1.6574    0.0000 C.3     1  UNL1       -0.0196
      4 C           5.2020   -0.6569    0.0000 C.3     1  UNL1       -0.0401
      5 C           6.9343   -1.6574    0.0000 C.3     1  UNL1       -0.0289
      6 C           7.8443   -1.1505    0.0000 C.3     1  UNL1       -0.0231
      7 C           5.2022   -2.6574    0.0000 C.3     1  UNL1       -0.0299
      8 C           6.0522   -0.1159    0.0000 C.3     1  UNL1       -0.0460
      9 C           7.8523   -0.1089    0.0000 C.3     1  UNL1       -0.0233
     10 C           4.3083   -1.1227    0.0000 C.3     1  UNL1       -0.0442
     11 C           6.9343   -2.6574    0.0000 C.3     1  UNL1       -0.0489
     12 C           6.9502    0.4119    0.0000 C.3     1  UNL1       -0.0463
     13 C           6.0682   -3.1574    0.0000 C.3     1  UNL1       -0.0491
     14 C           4.3083   -3.1920    0.0000 C.3     1  UNL1       -0.0144
     15 C           8.8403    0.2009    0.0000 C.3     1  UNL1       -0.0325
     16 C           8.8274   -1.4755    0.0000 C.3     1  UNL1       -0.0466
     17 C           3.4022   -1.6365    0.0000 C.3     1  UNL1       -0.0261
     18 C           9.4418   -0.6420    0.0000 C.3     1  UNL1       -0.0489
     19 C           7.8366   -2.1505    0.0000 C.3     1  UNL1       -0.0588
     20 C           3.4022   -2.6782    0.0000 C.3     1  UNL1        0.0581
     21 C           7.8600    0.8911    0.0000 C.3     1  UNL1       -0.0588
     22 C           9.1583    1.1490    0.0000 C.3     1  UNL1       -0.0402
     23 C           4.3198   -4.1920    0.0000 C.3     1  UNL1       -0.0598
     24 C          10.1384    1.3477    0.0000 C.3     1  UNL1       -0.0465
     25 C           8.4962    1.8984    0.0000 C.3     1  UNL1       -0.0621
     26 C          10.4564    2.2958    0.0000 C.3     1  UNL1       -0.0313
     27 C          11.4364    2.4944    0.0000 C.2     1  UNL1       -0.0711
     28 C          11.7544    3.4425    0.0000 C.3     1  UNL1       -0.0256
     29 C          12.0985    1.7450    0.0000 C.2     1  UNL1       -0.0876
     30 C          12.7345    3.6412    0.0000 C.3     1  UNL1       -0.0590
     31 C          11.0923    4.1920    0.0000 C.3     1  UNL1       -0.0590
     32 C          13.0786    1.9437    0.0000 C.3     1  UNL1       -0.0466
     33 H           5.4141   -0.0743    0.0000 H       1  UNL1        0.0276
     34 H           4.5914   -0.5493    0.0000 H       1  UNL1        0.0276
     35 H           7.6671   -2.0880    0.0000 H       1  UNL1        0.0312
     36 H           5.2088   -3.5073    0.0000 H       1  UNL1        0.0310
     37 H           5.8342    0.4645    0.0000 H       1  UNL1        0.0271
     38 H           5.4431   -0.2314    0.0000 H       1  UNL1        0.0271
     39 H           4.7129   -0.6529    0.0000 H       1  UNL1        0.0272
     40 H           3.9147   -0.6437    0.0000 H       1  UNL1        0.0272
     41 H           7.1463   -3.2400    0.0000 H       1  UNL1        0.0268
     42 H           7.5449   -2.5497    0.0000 H       1  UNL1        0.0268
     43 H           7.3475    0.8879    0.0000 H       1  UNL1        0.0271
     44 H           6.5493    0.8848    0.0000 H       1  UNL1        0.0271
     45 H           5.6697   -3.6323    0.0000 H       1  UNL1        0.0268
     46 H           6.4668   -3.6323    0.0000 H       1  UNL1        0.0268
     47 H           3.7744   -3.5072    0.0000 H       1  UNL1        0.0326
     48 H           9.6810    0.3263    0.0000 H       1  UNL1        0.0309
     49 H           8.5720   -2.0405    0.0000 H       1  UNL1        0.0271
     50 H           9.3624   -1.7889    0.0000 H       1  UNL1        0.0271
     51 H           3.1932   -1.0528    0.0000 H       1  UNL1        0.0290
     52 H           2.7914   -1.7426    0.0000 H       1  UNL1        0.0290
     53 H           9.8994   -1.0603    0.0000 H       1  UNL1        0.0268
     54 H           9.9058   -0.2308    0.0000 H       1  UNL1        0.0268
     55 H           7.2166   -2.1457    0.0000 H       1  UNL1        0.0235
     56 H           7.8318   -2.7705    0.0000 H       1  UNL1        0.0235
     57 H           8.4566   -2.1553    0.0000 H       1  UNL1        0.0235
     58 H           3.4058   -3.2982    0.0000 H       1  UNL1        0.0596
     59 H           8.4800    0.8863    0.0000 H       1  UNL1        0.0235
     60 H           7.8648    1.5110    0.0000 H       1  UNL1        0.0235
     61 H           7.2400    0.8958    0.0000 H       1  UNL1        0.0235
     62 H           9.3555    1.7368    0.0000 H       1  UNL1        0.0301
     63 H           3.6999   -4.1991    0.0000 H       1  UNL1        0.0233
     64 H           4.3270   -4.8119    0.0000 H       1  UNL1        0.0233
     65 H           4.9398   -4.1848    0.0000 H       1  UNL1        0.0233
     66 H          10.1542    0.7279    0.0000 H       1  UNL1        0.0271
     67 H          10.7515    1.2556    0.0000 H       1  UNL1        0.0271
     68 H           2.0000   -2.8736    0.0000 H       1  UNL1        0.2098
     69 H           8.9609    2.3089    0.0000 H       1  UNL1        0.0233
     70 H           8.0857    2.3631    0.0000 H       1  UNL1        0.0233
     71 H           8.0316    1.4879    0.0000 H       1  UNL1        0.0233
     72 H          10.4406    2.9156    0.0000 H       1  UNL1        0.0310
     73 H           9.8432    2.3878    0.0000 H       1  UNL1        0.0310
     74 H          12.1649    2.9779    0.0000 H       1  UNL1        0.0340
     75 H          11.9014    1.1572    0.0000 H       1  UNL1        0.0569
     76 H          11.5570    4.6024    0.0000 H       1  UNL1        0.0235
     77 H          12.8577    3.0336    0.0000 H       1  UNL1        0.0235
     78 H          13.3421    3.7644    0.0000 H       1  UNL1        0.0235
     79 H          10.6818    4.6566    0.0000 H       1  UNL1        0.0235
     80 H          10.6277    3.7815    0.0000 H       1  UNL1        0.0235
     81 H          12.6113    4.2488    0.0000 H       1  UNL1        0.0235
     82 H          13.2018    1.3360    0.0000 H       1  UNL1        0.0272
     83 H          13.6862    2.0668    0.0000 H       1  UNL1        0.0272
     84 H          12.9554    2.5513    0.0000 H       1  UNL1        0.0272
@<TRIPOS>BOND
     1    20     1    1
     2     1    68    1
     3     2     3    1
     4     2     4    1
     5     2     5    1
     6     2     8    1
     7     3     4    1
     8     3     7    1
     9     3    10    1
    10     4    33    1
    11     4    34    1
    12     5     6    1
    13     5    11    1
    14     5    35    1
    15     6     9    1
    16     6    16    1
    17     6    19    1
    18     7    13    1
    19     7    14    1
    20     7    36    1
    21     8    12    1
    22     8    37    1
    23     8    38    1
    24     9    12    1
    25     9    15    1
    26     9    21    1
    27    10    17    1
    28    10    39    1
    29    10    40    1
    30    11    13    1
    31    11    41    1
    32    11    42    1
    33    12    43    1
    34    12    44    1
    35    13    45    1
    36    13    46    1
    37    14    20    1
    38    14    23    1
    39    14    47    1
    40    15    18    1
    41    15    22    1
    42    15    48    1
    43    16    18    1
    44    16    49    1
    45    16    50    1
    46    17    20    1
    47    17    51    1
    48    17    52    1
    49    18    53    1
    50    18    54    1
    51    19    55    1
    52    19    56    1
    53    19    57    1
    54    20    58    1
    55    21    59    1
    56    21    60    1
    57    21    61    1
    58    22    24    1
    59    22    25    1
    60    22    62    1
    61    23    63    1
    62    23    64    1
    63    23    65    1
    64    24    26    1
    65    24    66    1
    66    24    67    1
    67    25    69    1
    68    25    70    1
    69    25    71    1
    70    26    27    1
    71    26    72    1
    72    26    73    1
    73    27    28    1
    74    27    29    2
    75    28    30    1
    76    28    31    1
    77    28    74    1
    78    29    32    1
    79    29    75    1
    80    30    77    1
    81    30    78    1
    82    30    81    1
    83    31    76    1
    84    31    79    1
    85    31    80    1
    86    32    82    1
    87    32    83    1
    88    32    84    1
