@<TRIPOS>MOLECULE
IMPHY002278
 86 89 0 0 0
SMALL
GASTEIGER

@<TRIPOS>ATOM
      1 O           5.7164   -1.2190    0.0000 O.2     1  UNL1       -0.4907
      2 O           6.7209    3.0721    0.0000 O.2     1  UNL1       -0.2735
      3 O           7.3901    0.7474    0.0000 O.2     1  UNL1       -0.2736
      4 O           3.3394    3.3557    0.0000 O.2     1  UNL1       -0.2738
      5 O           9.0930   -3.1684    0.0000 O.2     1  UNL1       -0.4988
      6 O          10.7667    1.6968    0.0000 O.2     1  UNL1       -0.2734
      7 N           6.3523    1.1757    0.0000 N.am    1  UNL1       -0.2849
      8 N           4.5547    2.0525    0.0000 N.am    1  UNL1       -0.2754
      9 N           3.5586    0.7774    0.0000 N.3     1  UNL1       -0.2789
     10 N           8.2269    0.2305    0.0000 N.am    1  UNL1       -0.3021
     11 N           9.9006    0.2305    0.0000 N.am    1  UNL1       -0.2907
     12 C           6.5532    0.2305    0.0000 C.3     1  UNL1        0.1390
     13 C           5.7164   -0.2526    0.0000 C.3     1  UNL1        0.1280
     14 C           4.9983    0.3940    0.0000 C.3     1  UNL1        0.0023
     15 C           5.3913    1.2767    0.0000 C.3     1  UNL1        0.0191
     16 C           5.3838    2.6117    0.0000 C.3     1  UNL1        0.1059
     17 C           6.2826    2.1733    0.0000 C.2     1  UNL1        0.2371
     18 C           5.3140    3.6092    0.0000 C.3     1  UNL1       -0.0195
     19 C           7.3901   -0.2526    0.0000 C.2     1  UNL1        0.2378
     20 C           4.5198    1.0531    0.0000 C.3     1  UNL1        0.0691
     21 C           2.9994    1.6065    0.0000 C.3     1  UNL1        0.0855
     22 C           3.6150    2.3945    0.0000 C.2     1  UNL1        0.2342
     23 C           8.2269    1.1968    0.0000 C.3     1  UNL1        0.1023
     24 C           4.4152    4.0476    0.0000 C.3     1  UNL1       -0.0605
     25 C           6.1431    4.1684    0.0000 C.3     1  UNL1       -0.0605
     26 C           6.5532   -1.7021    0.0000 C.2     1  UNL1        0.0993
     27 C           8.4006    2.1816    0.0000 C.3     1  UNL1       -0.0171
     28 C           2.0000    1.6414    0.0000 C.3     1  UNL1       -0.0409
     29 C           3.2166   -0.1623    0.0000 C.3     1  UNL1       -0.0106
     30 C           7.3901   -1.2190    0.0000 C.3     1  UNL1        0.0181
     31 C           8.2269   -1.7021    0.0000 C.3     1  UNL1        0.0428
     32 C           9.3403    2.5237    0.0000 C.3     1  UNL1       -0.0512
     33 C           9.9006    1.1968    0.0000 C.2     1  UNL1        0.2374
     34 C           6.5532   -2.6684    0.0000 C.2     1  UNL1       -0.0210
     35 C           8.0586    3.1213    0.0000 C.3     1  UNL1       -0.0603
     36 C           8.2269   -2.6684    0.0000 C.2     1  UNL1        0.1046
     37 C           7.3901   -3.1516    0.0000 C.2     1  UNL1       -0.0205
     38 C           9.0638   -1.2190    0.0000 C.2     1  UNL1       -0.0594
     39 C          10.1063    1.8809    0.0000 C.3     1  UNL1       -0.0650
     40 C           9.0638   -0.2526    0.0000 C.2     1  UNL1       -0.0069
     41 C           9.0930   -4.1684    0.0000 C.3     1  UNL1        0.0784
     42 H           7.0548    0.5950    0.0000 H       1  UNL1        0.0634
     43 H           5.1500   -0.5048    0.0000 H       1  UNL1        0.0757
     44 H           4.4613    0.7040    0.0000 H       1  UNL1        0.0317
     45 H           4.6338   -0.1076    0.0000 H       1  UNL1        0.0317
     46 H           5.5202    1.8832    0.0000 H       1  UNL1        0.0466
     47 H           4.8017    1.4683    0.0000 H       1  UNL1        0.0466
     48 H           5.4270    1.9932    0.0000 H       1  UNL1        0.0600
     49 H           4.8000    3.2625    0.0000 H       1  UNL1        0.0318
     50 H           4.6275    0.4425    0.0000 H       1  UNL1        0.0635
     51 H           5.1383    1.0963    0.0000 H       1  UNL1        0.0635
     52 H           2.6988    1.0642    0.0000 H       1  UNL1        0.0556
     53 H           8.7633    0.5415    0.0000 H       1  UNL1        0.1495
     54 H           7.6093    1.2509    0.0000 H       1  UNL1        0.0597
     55 H           6.4898    3.6544    0.0000 H       1  UNL1        0.0233
     56 H           4.6870    4.6048    0.0000 H       1  UNL1        0.0233
     57 H           3.8580    4.3194    0.0000 H       1  UNL1        0.0233
     58 H           4.1434    3.4903    0.0000 H       1  UNL1        0.0233
     59 H           6.6571    4.5151    0.0000 H       1  UNL1        0.0233
     60 H           5.7964    4.6824    0.0000 H       1  UNL1        0.0233
     61 H           7.7830    2.1276    0.0000 H       1  UNL1        0.0321
     62 H           2.0216    2.2610    0.0000 H       1  UNL1        0.0249
     63 H           1.3804    1.6630    0.0000 H       1  UNL1        0.0249
     64 H           1.9784    1.0217    0.0000 H       1  UNL1        0.0249
     65 H           2.6340    0.0498    0.0000 H       1  UNL1        0.0391
     66 H           3.0045   -0.7449    0.0000 H       1  UNL1        0.0391
     67 H           3.7992   -0.3743    0.0000 H       1  UNL1        0.0391
     68 H           7.7886   -0.7440    0.0000 H       1  UNL1        0.0353
     69 H           6.9916   -0.7440    0.0000 H       1  UNL1        0.0353
     70 H           8.7639   -2.0121    0.0000 H       1  UNL1        0.0426
     71 H           9.8152    2.9222    0.0000 H       1  UNL1        0.0266
     72 H           9.0303    3.0606    0.0000 H       1  UNL1        0.0266
     73 H           6.0163   -2.9784    0.0000 H       1  UNL1        0.0652
     74 H           8.6412    3.3334    0.0000 H       1  UNL1        0.0233
     75 H           7.8465    3.7040    0.0000 H       1  UNL1        0.0233
     76 H           7.4760    2.9093    0.0000 H       1  UNL1        0.0233
     77 H           7.3901   -3.7716    0.0000 H       1  UNL1        0.0652
     78 H           9.6007   -1.5290    0.0000 H       1  UNL1        0.0592
     79 H          10.4376   -0.0795    0.0000 H       1  UNL1        0.1543
     80 H           9.7078    1.4059    0.0000 H       1  UNL1        0.0230
     81 H          10.5813    1.4824    0.0000 H       1  UNL1        0.0230
     82 H          10.5049    2.3558    0.0000 H       1  UNL1        0.0230
     83 H           9.6007   -0.5626    0.0000 H       1  UNL1        0.0779
     84 H           8.4730   -4.1684    0.0000 H       1  UNL1        0.0660
     85 H           9.0930   -4.7884    0.0000 H       1  UNL1        0.0660
     86 H           9.7130   -4.1684    0.0000 H       1  UNL1        0.0660
@<TRIPOS>BOND
     1     1    13    1
     2     1    26    1
     3     2    17    2
     4     3    19    2
     5     4    22    2
     6     5    36    1
     7     5    41    1
     8     6    33    2
     9     7    12    1
    10     7    15    1
    11     7    17   am
    12     8    16    1
    13     8    20    1
    14     8    22   am
    15     9    20    1
    16     9    21    1
    17     9    29    1
    18    10    19   am
    19    10    23    1
    20    10    53    1
    21    11    33   am
    22    11    40    1
    23    11    79    1
    24    12    13    1
    25    12    19    1
    26    12    42    1
    27    13    14    1
    28    13    43    1
    29    14    15    1
    30    14    44    1
    31    14    45    1
    32    15    46    1
    33    15    47    1
    34    16    17    1
    35    16    18    1
    36    16    48    1
    37    18    24    1
    38    18    25    1
    39    18    49    1
    40    20    50    1
    41    20    51    1
    42    21    22    1
    43    21    28    1
    44    21    52    1
    45    23    27    1
    46    23    33    1
    47    23    54    1
    48    24    56    1
    49    24    57    1
    50    24    58    1
    51    25    55    1
    52    25    59    1
    53    25    60    1
    54    26    30    1
    55    26    34    2
    56    27    32    1
    57    27    35    1
    58    27    61    1
    59    28    62    1
    60    28    63    1
    61    28    64    1
    62    29    65    1
    63    29    66    1
    64    29    67    1
    65    30    31    1
    66    30    68    1
    67    30    69    1
    68    31    36    1
    69    31    38    1
    70    31    70    1
    71    32    39    1
    72    32    71    1
    73    32    72    1
    74    34    37    1
    75    34    73    1
    76    35    74    1
    77    35    75    1
    78    35    76    1
    79    36    37    2
    80    37    77    1
    81    38    40    2
    82    38    78    1
    83    39    80    1
    84    39    81    1
    85    39    82    1
    86    40    83    1
    87    41    84    1
    88    41    85    1
    89    41    86    1
