@<TRIPOS>MOLECULE
IMPHY002536
 50 51 0 0 0
SMALL
GASTEIGER

@<TRIPOS>ATOM
      1 O           5.4641   -3.0000    0.0000 O.3     1  UNL1       -0.4946
      2 O           7.1962    0.0000    0.0000 O.3     1  UNL1       -0.4942
      3 O           3.7320    0.0000    0.0000 O.3     1  UNL1       -0.5055
      4 O           4.5981    1.5000    0.0000 O.2     1  UNL1       -0.2870
      5 C           4.5981   -1.5000    0.0000 C.ar    1  UNL1        0.0402
      6 C           3.7320   -2.0000    0.0000 C.3     1  UNL1       -0.0023
      7 C           4.5981   -0.5000    0.0000 C.ar    1  UNL1        0.1381
      8 C           5.4641    0.0000    0.0000 C.ar    1  UNL1        0.1050
      9 C           5.4641   -2.0000    0.0000 C.ar    1  UNL1        0.1305
     10 C           6.3301   -0.5000    0.0000 C.ar    1  UNL1        0.1379
     11 C           6.3301   -1.5000    0.0000 C.ar    1  UNL1        0.0230
     12 C           3.7320   -3.0000    0.0000 C.2     1  UNL1       -0.0807
     13 C           5.4641    1.0000    0.0000 C.2     1  UNL1        0.1931
     14 C           2.8660   -3.5000    0.0000 C.2     1  UNL1       -0.0793
     15 C           6.3301    1.5000    0.0000 C.2     1  UNL1       -0.0135
     16 C           2.8660   -4.5000    0.0000 C.3     1  UNL1       -0.0440
     17 C           2.0000   -3.0000    0.0000 C.3     1  UNL1       -0.0440
     18 C           6.3301    2.5000    0.0000 C.2     1  UNL1       -0.0510
     19 C           6.3301   -3.5000    0.0000 C.3     1  UNL1        0.0788
     20 C           7.1962    3.0000    0.0000 C.ar    1  UNL1       -0.0249
     21 C           8.0622   -0.5000    0.0000 C.3     1  UNL1        0.0788
     22 C           8.0622    2.5000    0.0000 C.ar    1  UNL1       -0.0546
     23 C           7.1962    4.0000    0.0000 C.ar    1  UNL1       -0.0546
     24 C           8.9282    3.0000    0.0000 C.ar    1  UNL1       -0.0612
     25 C           8.0622    4.5000    0.0000 C.ar    1  UNL1       -0.0612
     26 C           8.9282    4.0000    0.0000 C.ar    1  UNL1       -0.0617
     27 H           3.5200   -1.4174    0.0000 H       1  UNL1        0.0358
     28 H           3.1215   -2.1077    0.0000 H       1  UNL1        0.0358
     29 H           6.8671   -1.8100    0.0000 H       1  UNL1        0.0691
     30 H           4.2690   -3.3100    0.0000 H       1  UNL1        0.0575
     31 H           6.8671    1.1900    0.0000 H       1  UNL1        0.0656
     32 H           3.1951   -0.3100    0.0000 H       1  UNL1        0.2922
     33 H           2.2460   -4.5000    0.0000 H       1  UNL1        0.0274
     34 H           2.3100   -2.4631    0.0000 H       1  UNL1        0.0274
     35 H           1.4631   -2.6900    0.0000 H       1  UNL1        0.0274
     36 H           1.6900   -3.5369    0.0000 H       1  UNL1        0.0274
     37 H           2.8660   -5.1200    0.0000 H       1  UNL1        0.0274
     38 H           3.4860   -4.5000    0.0000 H       1  UNL1        0.0274
     39 H           5.7932    2.8100    0.0000 H       1  UNL1        0.0625
     40 H           6.0201   -4.0369    0.0000 H       1  UNL1        0.0660
     41 H           6.8671   -3.8100    0.0000 H       1  UNL1        0.0660
     42 H           6.6401   -2.9631    0.0000 H       1  UNL1        0.0660
     43 H           7.7522   -1.0369    0.0000 H       1  UNL1        0.0660
     44 H           8.5991   -0.8100    0.0000 H       1  UNL1        0.0660
     45 H           8.3722    0.0369    0.0000 H       1  UNL1        0.0660
     46 H           8.0622    1.8800    0.0000 H       1  UNL1        0.0623
     47 H           6.6592    4.3100    0.0000 H       1  UNL1        0.0623
     48 H           9.4651    2.6900    0.0000 H       1  UNL1        0.0618
     49 H           8.0622    5.1200    0.0000 H       1  UNL1        0.0618
     50 H           9.4651    4.3100    0.0000 H       1  UNL1        0.0618
@<TRIPOS>BOND
     1     1     9    1
     2     1    19    1
     3     2    10    1
     4     2    21    1
     5     3     7    1
     6     3    32    1
     7     4    13    2
     8     5     6    1
     9     5     7   ar
    10     5     9   ar
    11     6    12    1
    12     6    27    1
    13     6    28    1
    14     7     8   ar
    15     8    10   ar
    16     8    13    1
    17     9    11   ar
    18    10    11   ar
    19    11    29    1
    20    12    14    2
    21    12    30    1
    22    13    15    1
    23    14    16    1
    24    14    17    1
    25    15    18    2
    26    15    31    1
    27    16    33    1
    28    16    37    1
    29    16    38    1
    30    17    34    1
    31    17    35    1
    32    17    36    1
    33    18    20    1
    34    18    39    1
    35    19    40    1
    36    19    41    1
    37    19    42    1
    38    20    22   ar
    39    20    23   ar
    40    21    43    1
    41    21    44    1
    42    21    45    1
    43    22    24   ar
    44    22    46    1
    45    23    25   ar
    46    23    47    1
    47    24    26   ar
    48    24    48    1
    49    25    26   ar
    50    25    49    1
    51    26    50    1
