@<TRIPOS>MOLECULE
IMPHY009376
 44 47 0 0 0
SMALL
GASTEIGER

@<TRIPOS>ATOM
      1 O           5.6500    0.4084    0.0000 O.3     1  UNL1       -0.4904
      2 O           3.9061   -2.6678    0.0000 O.3     1  UNL1       -0.4815
      3 O           9.1783   -0.5914    0.0000 O.3     1  UNL1       -0.5064
      4 O          10.9219    2.4019    0.0000 O.3     1  UNL1       -0.5066
      5 C           7.4501    0.4153    0.0000 C.3     1  UNL1        0.0258
      6 C           7.4420   -0.6263    0.0000 C.3     1  UNL1       -0.0141
      7 C           6.5320   -1.1332    0.0000 C.ar    1  UNL1       -0.0042
      8 C           6.5480    0.9361    0.0000 C.3     1  UNL1        0.0968
      9 C           5.6660   -0.6332    0.0000 C.ar    1  UNL1        0.1343
     10 C           4.8000   -1.1332    0.0000 C.ar    1  UNL1        0.0584
     11 C           8.3180    0.9119    0.0000 C.ar    1  UNL1        0.0009
     12 C           3.0000   -2.1540    0.0000 C.3     1  UNL1        0.1235
     13 C           4.8000   -2.1332    0.0000 C.ar    1  UNL1        0.1324
     14 C           6.5320   -2.1332    0.0000 C.ar    1  UNL1       -0.0516
     15 C           3.9061   -0.5985    0.0000 C.2     1  UNL1       -0.0478
     16 C           5.6660   -2.6332    0.0000 C.ar    1  UNL1       -0.0188
     17 C           3.0000   -1.1123    0.0000 C.2     1  UNL1       -0.0408
     18 C           9.1821    0.4086    0.0000 C.ar    1  UNL1        0.1239
     19 C           8.3219    1.9119    0.0000 C.ar    1  UNL1       -0.0513
     20 C           2.0000   -2.1578    0.0000 C.3     1  UNL1       -0.0215
     21 C           2.5033   -3.0219    0.0000 C.3     1  UNL1       -0.0215
     22 C          10.0501    0.9053    0.0000 C.ar    1  UNL1        0.0216
     23 C           9.1898    2.4086    0.0000 C.ar    1  UNL1       -0.0197
     24 C          10.0539    1.9053    0.0000 C.ar    1  UNL1        0.1203
     25 H           8.1837   -0.0140    0.0000 H       1  UNL1        0.0386
     26 H           7.6466   -1.2116    0.0000 H       1  UNL1        0.0321
     27 H           8.0537   -0.5249    0.0000 H       1  UNL1        0.0321
     28 H           6.9453    1.4121    0.0000 H       1  UNL1        0.0703
     29 H           6.1470    1.4090    0.0000 H       1  UNL1        0.0703
     30 H           7.0690   -2.4432    0.0000 H       1  UNL1        0.0623
     31 H           3.9132    0.0215    0.0000 H       1  UNL1        0.0624
     32 H           5.6660   -3.2532    0.0000 H       1  UNL1        0.0654
     33 H           2.4643   -0.8003    0.0000 H       1  UNL1        0.0611
     34 H           7.7862    2.2240    0.0000 H       1  UNL1        0.0623
     35 H           1.9976   -1.5378    0.0000 H       1  UNL1        0.0271
     36 H           1.3800   -2.1602    0.0000 H       1  UNL1        0.0271
     37 H           2.0024   -2.7778    0.0000 H       1  UNL1        0.0271
     38 H           1.9652   -2.7140    0.0000 H       1  UNL1        0.0271
     39 H           2.1954   -3.5600    0.0000 H       1  UNL1        0.0271
     40 H           3.0415   -3.3298    0.0000 H       1  UNL1        0.0271
     41 H          10.5858    0.5932    0.0000 H       1  UNL1        0.0691
     42 H           9.1922    3.0286    0.0000 H       1  UNL1        0.0654
     43 H           9.7140   -0.9034    0.0000 H       1  UNL1        0.2921
     44 H          10.9243    3.0219    0.0000 H       1  UNL1        0.2921
@<TRIPOS>BOND
     1     1     8    1
     2     1     9    1
     3     2    12    1
     4     2    13    1
     5     3    18    1
     6     3    43    1
     7     4    24    1
     8     4    44    1
     9     5     6    1
    10     5     8    1
    11     5    11    1
    12     5    25    1
    13     6     7    1
    14     6    26    1
    15     6    27    1
    16     7     9   ar
    17     7    14   ar
    18     8    28    1
    19     8    29    1
    20     9    10   ar
    21    10    13   ar
    22    10    15    1
    23    11    18   ar
    24    11    19   ar
    25    12    17    1
    26    12    20    1
    27    12    21    1
    28    13    16   ar
    29    14    16   ar
    30    14    30    1
    31    15    17    2
    32    15    31    1
    33    16    32    1
    34    17    33    1
    35    18    22   ar
    36    19    23   ar
    37    19    34    1
    38    20    35    1
    39    20    36    1
    40    20    37    1
    41    21    38    1
    42    21    39    1
    43    21    40    1
    44    22    24   ar
    45    22    41    1
    46    23    24   ar
    47    23    42    1
