@<TRIPOS>MOLECULE
IMPHY004130
 28 28 0 0 0
SMALL
GASTEIGER

@<TRIPOS>ATOM
      1 O           2.8660   -2.1550    0.0000 O.3     1  UNL1       -0.4913
      2 O           6.3301   -2.1550    0.0000 O.3     1  UNL1       -0.4913
      3 O           4.5981   -3.1550    0.0000 O.3     1  UNL1       -0.5009
      4 O           6.3301    2.8450    0.0000 O.3     1  UNL1       -0.4775
      5 O           4.5981    2.8450    0.0000 O.2     1  UNL1       -0.2458
      6 C           4.5981   -0.1550    0.0000 C.ar    1  UNL1       -0.0177
      7 C           3.7320   -1.6550    0.0000 C.ar    1  UNL1        0.1655
      8 C           5.4641   -1.6550    0.0000 C.ar    1  UNL1        0.1655
      9 C           4.5981   -2.1550    0.0000 C.ar    1  UNL1        0.2010
     10 C           3.7320   -0.6550    0.0000 C.ar    1  UNL1       -0.0089
     11 C           5.4641   -0.6550    0.0000 C.ar    1  UNL1       -0.0089
     12 C           4.5981    0.8450    0.0000 C.2     1  UNL1       -0.0476
     13 C           5.4641    1.3450    0.0000 C.2     1  UNL1        0.0229
     14 C           2.0000   -1.6550    0.0000 C.3     1  UNL1        0.0790
     15 C           7.1962   -1.6550    0.0000 C.3     1  UNL1        0.0790
     16 C           5.4641    2.3450    0.0000 C.2     1  UNL1        0.3296
     17 H           3.1951   -0.3450    0.0000 H       1  UNL1        0.0661
     18 H           6.0010   -0.3450    0.0000 H       1  UNL1        0.0661
     19 H           4.0611    1.1550    0.0000 H       1  UNL1        0.0626
     20 H           6.0010    1.0350    0.0000 H       1  UNL1        0.0689
     21 H           4.0611   -3.4650    0.0000 H       1  UNL1        0.2924
     22 H           2.3100   -1.1181    0.0000 H       1  UNL1        0.0660
     23 H           1.4631   -1.3450    0.0000 H       1  UNL1        0.0660
     24 H           1.6900   -2.1919    0.0000 H       1  UNL1        0.0660
     25 H           7.5062   -2.1919    0.0000 H       1  UNL1        0.0660
     26 H           7.7331   -1.3450    0.0000 H       1  UNL1        0.0660
     27 H           6.8862   -1.1181    0.0000 H       1  UNL1        0.0660
     28 H           6.3301    3.4650    0.0000 H       1  UNL1        0.2954
@<TRIPOS>BOND
     1     1     7    1
     2     1    14    1
     3     2     8    1
     4     2    15    1
     5     3     9    1
     6     3    21    1
     7     4    16    1
     8     4    28    1
     9     5    16    2
    10     6    10   ar
    11     6    11   ar
    12     6    12    1
    13     7     9   ar
    14     7    10   ar
    15     8     9   ar
    16     8    11   ar
    17    10    17    1
    18    11    18    1
    19    12    13    2
    20    12    19    1
    21    13    16    1
    22    13    20    1
    23    14    22    1
    24    14    23    1
    25    14    24    1
    26    15    25    1
    27    15    26    1
    28    15    27    1
