@<TRIPOS>MOLECULE
IMPHY007164
 47 50 0 0 0
SMALL
GASTEIGER

@<TRIPOS>ATOM
      1 O           6.6493    2.3654    0.0000 O.3     1  UNL1       -0.4677
      2 O           5.5659    3.2745    0.0000 O.2     1  UNL1       -0.2505
      3 O           2.0000    0.4481    0.0000 O.2     1  UNL1       -0.2905
      4 N           6.2862    1.1898    0.0000 N.3     1  UNL1       -0.3085
      5 N           2.7390   -1.2334    0.0000 N.ar    1  UNL1       -0.3517
      6 C           5.2304    1.3720    0.0000 C.3     1  UNL1        0.0789
      7 C           5.6131    0.4481    0.0000 C.3     1  UNL1        0.0254
      8 C           4.3066    1.7547    0.0000 C.3     1  UNL1        0.0027
      9 C           5.2304   -0.4758    0.0000 C.3     1  UNL1       -0.0087
     10 C           5.0483    2.4278    0.0000 C.2     1  UNL1       -0.0557
     11 C           3.3827    1.3720    0.0000 C.3     1  UNL1        0.0193
     12 C           6.0114    2.1530    0.0000 C.3     1  UNL1        0.0178
     13 C           4.3066   -0.8585    0.0000 C.ar    1  UNL1       -0.0101
     14 C           3.3827   -0.4758    0.0000 C.ar    1  UNL1        0.0865
     15 C           5.6531    2.2783    0.0000 C.2     1  UNL1        0.3120
     16 C           3.0000    0.4481    0.0000 C.2     1  UNL1        0.1800
     17 C           4.2260   -1.8493    0.0000 C.ar    1  UNL1        0.0036
     18 C           4.8208    3.4016    0.0000 C.2     1  UNL1       -0.0864
     19 C           3.2592   -2.0805    0.0000 C.ar    1  UNL1        0.0472
     20 C           4.9496   -2.5899    0.0000 C.ar    1  UNL1       -0.0523
     21 C           3.8637    3.6914    0.0000 C.3     1  UNL1       -0.0465
     22 C           2.9490   -3.0684    0.0000 C.ar    1  UNL1       -0.0378
     23 C           4.6623   -3.5847    0.0000 C.ar    1  UNL1       -0.0611
     24 C           3.6553   -3.8256    0.0000 C.ar    1  UNL1       -0.0598
     25 C           7.0719    3.2718    0.0000 C.3     1  UNL1        0.0817
     26 H           5.8503    1.3585    0.0000 H       1  UNL1        0.0435
     27 H           6.3311   -0.0069    0.0000 H       1  UNL1        0.0472
     28 H           3.8516    2.4726    0.0000 H       1  UNL1        0.0359
     29 H           5.3114   -1.0905    0.0000 H       1  UNL1        0.0329
     30 H           5.8451   -0.5567    0.0000 H       1  UNL1        0.0329
     31 H           3.3018    1.9867    0.0000 H       1  UNL1        0.0352
     32 H           2.7680    1.4529    0.0000 H       1  UNL1        0.0352
     33 H           6.8900    1.0488    0.0000 H       1  UNL1        0.1225
     34 H           6.6288    2.2103    0.0000 H       1  UNL1        0.0470
     35 H           6.0688    2.7703    0.0000 H       1  UNL1        0.0470
     36 H           5.2731    3.8256    0.0000 H       1  UNL1        0.0569
     37 H           2.1209   -1.1858    0.0000 H       1  UNL1        0.1660
     38 H           5.5509   -2.4387    0.0000 H       1  UNL1        0.0624
     39 H           4.0434    4.2848    0.0000 H       1  UNL1        0.0272
     40 H           3.2703    3.8712    0.0000 H       1  UNL1        0.0272
     41 H           3.6840    3.0981    0.0000 H       1  UNL1        0.0272
     42 H           2.3444   -3.2056    0.0000 H       1  UNL1        0.0638
     43 H           5.0904   -4.0332    0.0000 H       1  UNL1        0.0618
     44 H           3.4764   -4.4192    0.0000 H       1  UNL1        0.0618
     45 H           7.6338    3.0097    0.0000 H       1  UNL1        0.0661
     46 H           7.3339    3.8337    0.0000 H       1  UNL1        0.0661
     47 H           6.5100    3.5338    0.0000 H       1  UNL1        0.0661
@<TRIPOS>BOND
     1     1    15    1
     2     1    25    1
     3     2    15    2
     4     3    16    2
     5     4     7    1
     6     4    12    1
     7     4    33    1
     8     5    14   ar
     9     5    19   ar
    10     5    37    1
    11     6     7    1
    12     6     8    1
    13     6    15    1
    14     6    26    1
    15     7     9    1
    16     7    27    1
    17     8    10    1
    18     8    11    1
    19     8    28    1
    20     9    13    1
    21     9    29    1
    22     9    30    1
    23    10    12    1
    24    10    18    2
    25    11    16    1
    26    11    31    1
    27    11    32    1
    28    12    34    1
    29    12    35    1
    30    13    14   ar
    31    13    17   ar
    32    14    16    1
    33    17    19   ar
    34    17    20   ar
    35    18    21    1
    36    18    36    1
    37    19    22   ar
    38    20    23   ar
    39    20    38    1
    40    21    39    1
    41    21    40    1
    42    21    41    1
    43    22    24   ar
    44    22    42    1
    45    23    24   ar
    46    23    43    1
    47    24    44    1
    48    25    45    1
    49    25    46    1
    50    25    47    1
