@<TRIPOS>MOLECULE
IMPHY002401
 26 29 0 0 0
SMALL
GASTEIGER

@<TRIPOS>ATOM
      1 C        2551.8600 2559.9500    0.0000 C.3     1  UNL1        0.1828
      2 O        2517.2200 2579.9000    0.0000 O.3     1  UNL1       -0.2204
      3 C        2551.8600 2519.9500    0.0000 C.3     1  UNL1        0.0459
      4 C        2551.8600 2479.6500    0.0000 C.3     1  UNL1        0.0114
      5 C        2517.3200 2459.5000    0.0000 C.3     1  UNL1        0.0121
      6 C        2482.7800 2479.6500    0.0000 C.3     1  UNL1        0.0613
      7 C        2482.7800 2519.9500    0.0000 C.2     1  UNL1        0.1506
      8 C        2517.3200 2540.1000    0.0000 C.3     1  UNL1        0.0675
      9 O        2448.1400 2539.9000    0.0000 O.2     1  UNL1       -0.2961
     10 C        2448.2400 2459.5000    0.0000 C.3     1  UNL1        0.0215
     11 C        2448.2400 2499.5000    0.0000 C.3     1  UNL1        0.0045
     12 C        2448.2400 2419.2100    0.0000 C.2     1  UNL1       -0.0472
     13 C        2482.7800 2399.0600    0.0000 C.2     1  UNL1       -0.0346
     14 C        2517.3200 2419.2100    0.0000 C.3     1  UNL1        0.0258
     15 C        2413.7000 2399.0600    0.0000 C.3     1  UNL1        0.0407
     16 C        2379.0600 2419.2100    0.0000 C.3     1  UNL1        0.0958
     17 C        2379.0600 2459.5000    0.0000 C.3     1  UNL1        0.0197
     18 C        2413.7000 2479.6500    0.0000 C.3     1  UNL1        0.0056
     19 N        2344.4200 2399.1600    0.0000 N.3     1  UNL1       -0.1326
     20 C        2620.9400 2479.6500    0.0000 C.3     1  UNL1        0.0647
     21 C        2620.9400 2519.9500    0.0000 C.2     1  UNL1        0.1517
     22 C        2586.4000 2540.1000    0.0000 C.3     1  UNL1        0.0780
     23 C        2586.4000 2580.1000    0.0000 C.3     1  UNL1        0.0988
     24 C        2621.0400 2600.1500    0.0000 C.3     1  UNL1        0.0209
     25 N        2550.3700 2600.9400    0.0000 N.3     1  UNL1       -0.1325
     26 O        2655.5800 2539.9000    0.0000 O.2     1  UNL1       -0.2960
@<TRIPOS>BOND
     1     1     2    1
     2     3     1    1
     3     3     4    1
     4     3     8    1
     5     3    22    1
     6     4     5    1
     7     4    20    1
     8     5     6    1
     9     5    14    1
    10     6    10    1
    11     6     7    1
    12     7     9    2
    13     8     7    1
    14    10    11    1
    15    10    12    1
    16    10    18    1
    17    12    15    1
    18    13    12    2
    19    14    13    1
    20    15    16    1
    21    16    19    1
    22    17    16    1
    23    18    17    1
    24    20    21    1
    25    21    26    2
    26    22    21    1
    27    22    23    1
    28    23    24    1
    29    23    25    1
