@<TRIPOS>MOLECULE
IMPHY009977
 19 19 0 0 0
SMALL
GASTEIGER

@<TRIPOS>ATOM
      1 O           2.8660    1.3450    0.0000 O.3     1  UNL1       -0.3918
      2 C           2.8660    0.3450    0.0000 C.3     1  UNL1        0.0553
      3 C           2.0000   -0.1550    0.0000 C.3     1  UNL1       -0.0269
      4 C           3.7320   -0.1550    0.0000 C.3     1  UNL1       -0.0269
      5 C           2.0000   -1.1550    0.0000 C.3     1  UNL1       -0.0507
      6 C           3.7320   -1.1550    0.0000 C.3     1  UNL1       -0.0507
      7 C           2.8660   -1.6550    0.0000 C.3     1  UNL1       -0.0529
      8 H           3.4030    0.6550    0.0000 H       1  UNL1        0.0593
      9 H           1.7093    0.6437    0.0000 H       1  UNL1        0.0290
     10 H           1.3894   -0.2627    0.0000 H       1  UNL1        0.0290
     11 H           4.3426   -0.2627    0.0000 H       1  UNL1        0.0290
     12 H           3.9441    0.4276    0.0000 H       1  UNL1        0.0290
     13 H           1.3894   -1.0473    0.0000 H       1  UNL1        0.0266
     14 H           1.7880   -1.7376    0.0000 H       1  UNL1        0.0266
     15 H           3.9441   -1.7376    0.0000 H       1  UNL1        0.0266
     16 H           4.3426   -1.0473    0.0000 H       1  UNL1        0.0266
     17 H           2.4675   -2.1300    0.0000 H       1  UNL1        0.0265
     18 H           3.2646   -2.1300    0.0000 H       1  UNL1        0.0265
     19 H           3.4030    1.6550    0.0000 H       1  UNL1        0.2098
@<TRIPOS>BOND
     1     1     2    1
     2     1    19    1
     3     2     3    1
     4     2     4    1
     5     2     8    1
     6     3     5    1
     7     3     9    1
     8     3    10    1
     9     4     6    1
    10     4    11    1
    11     4    12    1
    12     5     7    1
    13     5    13    1
    14     5    14    1
    15     6     7    1
    16     6    15    1
    17     6    16    1
    18     7    17    1
    19     7    18    1
