@<TRIPOS>MOLECULE
IMPHY012987
 41 46 0 0 0
SMALL
GASTEIGER

@<TRIPOS>ATOM
      1 O           5.4044   -1.8893    0.0000 O.3     1  UNL1       -0.4520
      2 O           3.9591   -2.7387    0.0000 O.3     1  UNL1       -0.4526
      3 O           8.2670    1.6794    0.0000 O.3     1  UNL1       -0.4526
      4 O           8.2670    0.0029    0.0000 O.3     1  UNL1       -0.4526
      5 N           2.8911    1.8381    0.0000 N.3     1  UNL1       -0.2978
      6 C           3.7493    1.3412    0.0000 C.3     1  UNL1        0.0403
      7 C           3.7493    0.3412    0.0000 C.ar    1  UNL1       -0.0153
      8 C           4.6153    1.8412    0.0000 C.3     1  UNL1       -0.0072
      9 C           2.8393   -0.1657    0.0000 C.ar    1  UNL1       -0.0372
     10 C           4.6153   -0.1588    0.0000 C.ar    1  UNL1        0.0329
     11 C           2.0256    1.3539    0.0000 C.3     1  UNL1        0.0032
     12 C           2.0000    0.3625    0.0000 C.3     1  UNL1       -0.0144
     13 C           5.4814    1.3412    0.0000 C.ar    1  UNL1       -0.0341
     14 C           5.4814    0.3412    0.0000 C.ar    1  UNL1       -0.0070
     15 C           4.6314   -1.2003    0.0000 C.ar    1  UNL1        0.1742
     16 C           2.8313   -1.2073    0.0000 C.ar    1  UNL1       -0.0126
     17 C           3.7334   -1.7281    0.0000 C.ar    1  UNL1        0.1671
     18 C           2.8985    2.8381    0.0000 C.3     1  UNL1       -0.0122
     19 C           6.3753    1.8758    0.0000 C.ar    1  UNL1       -0.0123
     20 C           6.3753   -0.1935    0.0000 C.ar    1  UNL1       -0.0080
     21 C           7.2814    1.3620    0.0000 C.ar    1  UNL1        0.1665
     22 C           7.2814    0.3203    0.0000 C.ar    1  UNL1        0.1668
     23 C           4.9898   -2.8381    0.0000 C.3     1  UNL1        0.2333
     24 C           8.8749    0.8412    0.0000 C.3     1  UNL1        0.2332
     25 H           3.7498    2.1912    0.0000 H       1  UNL1        0.0516
     26 H           5.0139    2.3161    0.0000 H       1  UNL1        0.0332
     27 H           4.2168    2.3161    0.0000 H       1  UNL1        0.0332
     28 H           1.8239    1.9402    0.0000 H       1  UNL1        0.0430
     29 H           1.4128    1.2596    0.0000 H       1  UNL1        0.0430
     30 H           1.3929    0.4884    0.0000 H       1  UNL1        0.0326
     31 H           1.7682   -0.2125    0.0000 H       1  UNL1        0.0326
     32 H           2.2932   -1.5152    0.0000 H       1  UNL1        0.0658
     33 H           3.5185    2.8335    0.0000 H       1  UNL1        0.0391
     34 H           2.9031    3.4580    0.0000 H       1  UNL1        0.0391
     35 H           2.2785    2.8426    0.0000 H       1  UNL1        0.0391
     36 H           6.3681    2.4958    0.0000 H       1  UNL1        0.0658
     37 H           6.3681   -0.8135    0.0000 H       1  UNL1        0.0661
     38 H           4.8657   -3.4455    0.0000 H       1  UNL1        0.1166
     39 H           5.5808   -3.0253    0.0000 H       1  UNL1        0.1166
     40 H           9.3358    0.4264    0.0000 H       1  UNL1        0.1166
     41 H           9.3358    1.2559    0.0000 H       1  UNL1        0.1166
@<TRIPOS>BOND
     1     1    15    1
     2     1    23    1
     3     2    17    1
     4     2    23    1
     5     3    21    1
     6     3    24    1
     7     4    22    1
     8     4    24    1
     9     5     6    1
    10     5    11    1
    11     5    18    1
    12     6     7    1
    13     6     8    1
    14     6    25    1
    15     7     9   ar
    16     7    10   ar
    17     8    13    1
    18     8    26    1
    19     8    27    1
    20     9    12    1
    21     9    16   ar
    22    10    14    1
    23    10    15   ar
    24    11    12    1
    25    11    28    1
    26    11    29    1
    27    12    30    1
    28    12    31    1
    29    13    14   ar
    30    13    19   ar
    31    14    20   ar
    32    15    17   ar
    33    16    17   ar
    34    16    32    1
    35    18    33    1
    36    18    34    1
    37    18    35    1
    38    19    21   ar
    39    19    36    1
    40    20    22   ar
    41    20    37    1
    42    21    22   ar
    43    23    38    1
    44    23    39    1
    45    24    40    1
    46    24    41    1
