@<TRIPOS>MOLECULE
IMPHY003422
 82 86 0 0 0
SMALL
GASTEIGER

@<TRIPOS>ATOM
      1 O           4.7621   -4.9243    0.0000 O.3     1  UNL1       -0.3912
      2 O           2.2712   -4.4268    0.0000 O.3     1  UNL1       -0.3944
      3 O           7.0399    5.0552    0.0000 O.3     1  UNL1       -0.3912
      4 O           3.3714    4.1115    0.0000 O.2     1  UNL1       -0.2923
      5 C           4.4894   -1.7807    0.0000 C.3     1  UNL1       -0.0252
      6 C           4.3955   -0.7433    0.0000 C.3     1  UNL1       -0.0296
      7 C           3.6333   -2.3741    0.0000 C.3     1  UNL1       -0.0255
      8 C           3.4945   -0.3094    0.0000 C.3     1  UNL1       -0.0250
      9 C           3.7060   -3.4566    0.0000 C.3     1  UNL1        0.0203
     10 C           2.6948   -1.9221    0.0000 C.3     1  UNL1       -0.0485
     11 C           2.6250   -0.8828    0.0000 C.3     1  UNL1       -0.0468
     12 C           5.4775   -2.2287    0.0000 C.3     1  UNL1       -0.0447
     13 C           5.2965   -0.3094    0.0000 C.3     1  UNL1       -0.0486
     14 C           4.8955    1.4474    0.0000 C.3     1  UNL1       -0.0134
     15 C           5.4302    2.3413    0.0000 C.3     1  UNL1       -0.0151
     16 C           3.2720    0.6655    0.0000 C.3     1  UNL1       -0.0254
     17 C           5.5190    0.6655    0.0000 C.3     1  UNL1       -0.0457
     18 C           4.6835   -3.9274    0.0000 C.3     1  UNL1        0.0630
     19 C           3.8955    1.4474    0.0000 C.2     1  UNL1       -0.0621
     20 C           5.5753   -3.3093    0.0000 C.3     1  UNL1       -0.0257
     21 C           4.9163    3.2474    0.0000 C.3     1  UNL1        0.0349
     22 C           5.3112   -1.2110    0.0000 C.3     1  UNL1       -0.0590
     23 C           2.5936    0.1245    0.0000 C.3     1  UNL1       -0.0590
     24 C           5.4516    4.1912    0.0000 C.3     1  UNL1        0.0014
     25 C           6.5149    2.3162    0.0000 C.3     1  UNL1       -0.0441
     26 C           3.2686   -4.3559    0.0000 C.3     1  UNL1        0.0522
     27 C           2.7085   -3.5275    0.0000 C.3     1  UNL1       -0.0548
     28 C           6.5366    4.1912    0.0000 C.3     1  UNL1        0.0610
     29 C           5.9235    1.4714    0.0000 C.3     1  UNL1       -0.0583
     30 C           3.3608    2.3413    0.0000 C.2     1  UNL1       -0.0194
     31 C           7.0718    3.2474    0.0000 C.3     1  UNL1       -0.0258
     32 C           3.8747    3.2474    0.0000 C.2     1  UNL1        0.1602
     33 C           5.4477    5.1912    0.0000 C.3     1  UNL1       -0.0568
     34 C           4.5836    4.6878    0.0000 C.3     1  UNL1       -0.0568
     35 H           4.9348   -1.0491    0.0000 H       1  UNL1        0.0311
     36 H           3.1196   -2.7214    0.0000 H       1  UNL1        0.0313
     37 H           2.0782   -1.8572    0.0000 H       1  UNL1        0.0268
     38 H           2.5253   -2.5185    0.0000 H       1  UNL1        0.0268
     39 H           2.3772   -0.3145    0.0000 H       1  UNL1        0.0271
     40 H           2.0226   -1.0296    0.0000 H       1  UNL1        0.0271
     41 H           6.0954   -2.2793    0.0000 H       1  UNL1        0.0271
     42 H           5.6331   -1.6286    0.0000 H       1  UNL1        0.0271
     43 H           5.4344   -0.9139    0.0000 H       1  UNL1        0.0268
     44 H           5.9165   -0.3094    0.0000 H       1  UNL1        0.0268
     45 H           5.7436    1.5043    0.0000 H       1  UNL1        0.0351
     46 H           2.8854    1.1503    0.0000 H       1  UNL1        0.0316
     47 H           2.7134    0.3965    0.0000 H       1  UNL1        0.0316
     48 H           6.0776    0.3965    0.0000 H       1  UNL1        0.0271
     49 H           5.9056    1.1503    0.0000 H       1  UNL1        0.0271
     50 H           4.1720   -4.2776    0.0000 H       1  UNL1        0.0599
     51 H           5.8361   -3.8718    0.0000 H       1  UNL1        0.0290
     52 H           6.1741   -3.1486    0.0000 H       1  UNL1        0.0290
     53 H           4.4885    3.9818    0.0000 H       1  UNL1        0.0392
     54 H           5.6644   -1.7206    0.0000 H       1  UNL1        0.0235
     55 H           5.8208   -0.8578    0.0000 H       1  UNL1        0.0235
     56 H           4.9580   -0.7014    0.0000 H       1  UNL1        0.0235
     57 H           2.8626    0.6831    0.0000 H       1  UNL1        0.0235
     58 H           2.0350    0.3935    0.0000 H       1  UNL1        0.0235
     59 H           2.3246   -0.4341    0.0000 H       1  UNL1        0.0235
     60 H           6.3947    1.7080    0.0000 H       1  UNL1        0.0272
     61 H           7.0936    2.0937    0.0000 H       1  UNL1        0.0272
     62 H           3.2045   -4.9726    0.0000 H       1  UNL1        0.0563
     63 H           3.8648   -4.5261    0.0000 H       1  UNL1        0.0563
     64 H           2.6646   -2.9091    0.0000 H       1  UNL1        0.0237
     65 H           2.0901   -3.5715    0.0000 H       1  UNL1        0.0237
     66 H           2.7525   -4.1460    0.0000 H       1  UNL1        0.0237
     67 H           6.2276    4.7287    0.0000 H       1  UNL1        0.0599
     68 H           5.3842    1.1656    0.0000 H       1  UNL1        0.0235
     69 H           6.2293    0.9321    0.0000 H       1  UNL1        0.0235
     70 H           6.4628    1.7773    0.0000 H       1  UNL1        0.0235
     71 H           2.7409    2.3341    0.0000 H       1  UNL1        0.0652
     72 H           7.5416    2.8428    0.0000 H       1  UNL1        0.0290
     73 H           7.5508    3.6410    0.0000 H       1  UNL1        0.0290
     74 H           6.0677    5.1935    0.0000 H       1  UNL1        0.0236
     75 H           5.4453    5.8111    0.0000 H       1  UNL1        0.0236
     76 H           4.8277    5.1888    0.0000 H       1  UNL1        0.0236
     77 H           4.8915    5.2259    0.0000 H       1  UNL1        0.0236
     78 H           4.0455    4.9957    0.0000 H       1  UNL1        0.0236
     79 H           4.2757    4.1497    0.0000 H       1  UNL1        0.0236
     80 H           5.3218   -5.1912    0.0000 H       1  UNL1        0.2098
     81 H           2.0000   -4.9844    0.0000 H       1  UNL1        0.2094
     82 H           7.6599    5.0529    0.0000 H       1  UNL1        0.2098
@<TRIPOS>BOND
     1    18     1    1
     2     1    80    1
     3     2    26    1
     4     2    81    1
     5    28     3    1
     6     3    82    1
     7     4    32    2
     8     5     6    1
     9     5     7    1
    10     5    12    1
    11     5    22    1
    12     6     8    1
    13     6    13    1
    14     6    35    1
    15     7     9    1
    16     7    10    1
    17     7    36    1
    18     8    11    1
    19     8    16    1
    20     8    23    1
    21     9    18    1
    22     9    26    1
    23     9    27    1
    24    10    11    1
    25    10    37    1
    26    10    38    1
    27    11    39    1
    28    11    40    1
    29    12    20    1
    30    12    41    1
    31    12    42    1
    32    13    17    1
    33    13    43    1
    34    13    44    1
    35    14    15    1
    36    14    17    1
    37    14    19    1
    38    14    45    1
    39    15    21    1
    40    15    25    1
    41    15    29    1
    42    16    19    1
    43    16    46    1
    44    16    47    1
    45    17    48    1
    46    17    49    1
    47    18    20    1
    48    18    50    1
    49    19    30    2
    50    20    51    1
    51    20    52    1
    52    21    24    1
    53    21    32    1
    54    21    53    1
    55    22    54    1
    56    22    55    1
    57    22    56    1
    58    23    57    1
    59    23    58    1
    60    23    59    1
    61    24    28    1
    62    24    33    1
    63    24    34    1
    64    25    31    1
    65    25    60    1
    66    25    61    1
    67    26    62    1
    68    26    63    1
    69    27    64    1
    70    27    65    1
    71    27    66    1
    72    28    31    1
    73    28    67    1
    74    29    68    1
    75    29    69    1
    76    29    70    1
    77    30    32    1
    78    30    71    1
    79    31    72    1
    80    31    73    1
    81    33    74    1
    82    33    75    1
    83    33    76    1
    84    34    77    1
    85    34    78    1
    86    34    79    1
