@<TRIPOS>MOLECULE
IMPHY012682
 30 31 0 0 0
SMALL
GASTEIGER

@<TRIPOS>ATOM
      1 N           2.5369   -0.6224    0.0000 N.3     1  UNL1       -0.3154
      2 C           4.2690    0.3776    0.0000 C.3     1  UNL1       -0.0331
      3 C           4.2690   -0.6224    0.0000 C.3     1  UNL1       -0.0228
      4 C           5.2152   -0.9271    0.0000 C.3     1  UNL1       -0.0396
      5 C           5.2152    0.6824    0.0000 C.3     1  UNL1       -0.0494
      6 C           3.4030    0.8776    0.0000 C.3     1  UNL1       -0.0282
      7 C           5.7988   -0.1224    0.0000 C.3     1  UNL1       -0.0499
      8 C           3.4030   -1.1224    0.0000 C.3     1  UNL1       -0.0008
      9 C           2.5369    0.3776    0.0000 C.3     1  UNL1       -0.0013
     10 C           5.5259   -1.8776    0.0000 C.3     1  UNL1       -0.0621
     11 C           3.4030    1.8776    0.0000 C.3     1  UNL1       -0.0610
     12 H           4.3589    1.2228    0.0000 H       1  UNL1        0.0307
     13 H           4.3589   -1.4676    0.0000 H       1  UNL1        0.0318
     14 H           5.8277   -1.0233    0.0000 H       1  UNL1        0.0301
     15 H           5.7526    0.9916    0.0000 H       1  UNL1        0.0268
     16 H           4.9642    1.2493    0.0000 H       1  UNL1        0.0268
     17 H           3.9399    1.1876    0.0000 H       1  UNL1        0.0313
     18 H           6.2597   -0.5371    0.0000 H       1  UNL1        0.0268
     19 H           6.2597    0.2924    0.0000 H       1  UNL1        0.0268
     20 H           3.0044   -1.5973    0.0000 H       1  UNL1        0.0427
     21 H           3.8015   -1.5973    0.0000 H       1  UNL1        0.0427
     22 H           2.3249    0.9602    0.0000 H       1  UNL1        0.0427
     23 H           1.9264    0.2700    0.0000 H       1  UNL1        0.0427
     24 H           2.0000   -0.9324    0.0000 H       1  UNL1        0.1220
     25 H           4.9366   -2.0702    0.0000 H       1  UNL1        0.0233
     26 H           5.7185   -2.4670    0.0000 H       1  UNL1        0.0233
     27 H           6.1152   -1.6850    0.0000 H       1  UNL1        0.0233
     28 H           4.0230    1.8776    0.0000 H       1  UNL1        0.0233
     29 H           3.4030    2.4976    0.0000 H       1  UNL1        0.0233
     30 H           2.7830    1.8776    0.0000 H       1  UNL1        0.0233
@<TRIPOS>BOND
     1     1     8    1
     2     1     9    1
     3     1    24    1
     4     2     3    1
     5     2     5    1
     6     2     6    1
     7     2    12    1
     8     3     4    1
     9     3     8    1
    10     3    13    1
    11     4     7    1
    12     4    10    1
    13     4    14    1
    14     5     7    1
    15     5    15    1
    16     5    16    1
    17     6     9    1
    18     6    11    1
    19     6    17    1
    20     7    18    1
    21     7    19    1
    22     8    20    1
    23     8    21    1
    24     9    22    1
    25     9    23    1
    26    10    25    1
    27    10    26    1
    28    10    27    1
    29    11    28    1
    30    11    29    1
    31    11    30    1
