@<TRIPOS>MOLECULE
IMPHY013307
 56 58 0 0 0
SMALL
GASTEIGER

@<TRIPOS>ATOM
      1 O           7.7331    2.4050    0.0000 O.3     1  UNL1       -0.3803
      2 O           9.4893   -0.4861    0.0000 O.3     1  UNL1       -0.3856
      3 O           6.0010    0.4050    0.0000 O.2     1  UNL1       -0.4699
      4 O           6.8671   -1.0950    0.0000 O.3     1  UNL1       -0.3094
      5 O           8.9900    2.6602    0.0000 O.3     1  UNL1       -0.3859
      6 O          10.2629    0.9050    0.0000 O.3     1  UNL1       -0.3863
      7 O           5.1350   -1.0950    0.0000 O.3     1  UNL1       -0.3404
      8 O           6.0010    3.4050    0.0000 O.3     1  UNL1       -0.4645
      9 O           6.8671   -3.0950    0.0000 O.3     1  UNL1       -0.3841
     10 O           7.7331    3.4050    0.0000 O.2     1  UNL1       -0.2451
     11 O           5.1350   -4.0950    0.0000 O.3     1  UNL1       -0.3864
     12 O           3.4030   -3.0950    0.0000 O.3     1  UNL1       -0.3865
     13 O           2.5369   -1.5950    0.0000 O.3     1  UNL1       -0.3924
     14 C           7.7331    0.4050    0.0000 C.3     1  UNL1        0.0882
     15 C           7.7331    1.4050    0.0000 C.3     1  UNL1        0.1398
     16 C           8.6793    0.1003    0.0000 C.3     1  UNL1        0.1031
     17 C           8.6793    1.7097    0.0000 C.3     1  UNL1        0.1173
     18 C           9.2629    0.9050    0.0000 C.3     1  UNL1        0.1129
     19 C           6.8671   -0.0950    0.0000 C.3     1  UNL1        0.2120
     20 C           6.8671    1.9050    0.0000 C.2     1  UNL1        0.1051
     21 C           8.3719   -0.8513    0.0000 C.3     1  UNL1       -0.0330
     22 C           6.0010    1.4050    0.0000 C.2     1  UNL1        0.1007
     23 C           6.0010   -1.5950    0.0000 C.3     1  UNL1        0.1918
     24 C           6.8671    2.9050    0.0000 C.2     1  UNL1        0.3407
     25 C           6.0010   -2.5950    0.0000 C.3     1  UNL1        0.1342
     26 C           5.1350   -3.0950    0.0000 C.3     1  UNL1        0.1141
     27 C           4.2690   -2.5950    0.0000 C.3     1  UNL1        0.1119
     28 C           4.2690   -1.5950    0.0000 C.3     1  UNL1        0.1130
     29 C           3.4030   -1.0950    0.0000 C.3     1  UNL1        0.0730
     30 C           6.0010    4.4050    0.0000 C.3     1  UNL1        0.0820
     31 H           7.8230   -0.4402    0.0000 H       1  UNL1        0.0423
     32 H           8.2418    2.1491    0.0000 H       1  UNL1        0.0653
     33 H           9.5446    1.4573    0.0000 H       1  UNL1        0.0649
     34 H           7.4040   -0.4050    0.0000 H       1  UNL1        0.1061
     35 H           7.7820   -0.6608    0.0000 H       1  UNL1        0.0258
     36 H           8.1814   -1.4413    0.0000 H       1  UNL1        0.0258
     37 H           8.9619   -1.0419    0.0000 H       1  UNL1        0.0258
     38 H           8.2700    2.7150    0.0000 H       1  UNL1        0.2108
     39 H           9.4256   -1.1028    0.0000 H       1  UNL1        0.2103
     40 H           5.4641    1.7150    0.0000 H       1  UNL1        0.1030
     41 H           9.5966    2.7881    0.0000 H       1  UNL1        0.2100
     42 H          10.5729    1.4419    0.0000 H       1  UNL1        0.2100
     43 H           6.0010   -0.9750    0.0000 H       1  UNL1        0.0939
     44 H           6.0010   -3.2150    0.0000 H       1  UNL1        0.0671
     45 H           4.5981   -3.4050    0.0000 H       1  UNL1        0.0648
     46 H           4.2690   -3.2150    0.0000 H       1  UNL1        0.0647
     47 H           4.2690   -0.9750    0.0000 H       1  UNL1        0.0647
     48 H           3.8015   -0.6201    0.0000 H       1  UNL1        0.0584
     49 H           3.0044   -0.6201    0.0000 H       1  UNL1        0.0584
     50 H           6.8671   -3.7150    0.0000 H       1  UNL1        0.2101
     51 H           4.5981   -4.4050    0.0000 H       1  UNL1        0.2100
     52 H           3.4030   -3.7150    0.0000 H       1  UNL1        0.2100
     53 H           6.6210    4.4050    0.0000 H       1  UNL1        0.0661
     54 H           6.0010    5.0250    0.0000 H       1  UNL1        0.0661
     55 H           5.3810    4.4050    0.0000 H       1  UNL1        0.0661
     56 H           2.0000   -1.2850    0.0000 H       1  UNL1        0.2095
@<TRIPOS>BOND
     1    15     1    1
     2     1    38    1
     3    16     2    1
     4     2    39    1
     5     3    19    1
     6     3    22    1
     7    19     4    1
     8    23     4    1
     9    17     5    1
    10     5    41    1
    11    18     6    1
    12     6    42    1
    13     7    23    1
    14     7    28    1
    15     8    24    1
    16     8    30    1
    17    25     9    1
    18     9    50    1
    19    10    24    2
    20    26    11    1
    21    11    51    1
    22    27    12    1
    23    12    52    1
    24    13    29    1
    25    13    56    1
    26    14    15    1
    27    14    16    1
    28    14    19    1
    29    14    31    1
    30    15    17    1
    31    15    20    1
    32    16    18    1
    33    16    21    1
    34    17    18    1
    35    17    32    1
    36    18    33    1
    37    19    34    1
    38    20    22    2
    39    20    24    1
    40    21    35    1
    41    21    36    1
    42    21    37    1
    43    22    40    1
    44    23    25    1
    45    23    43    1
    46    25    26    1
    47    25    44    1
    48    26    27    1
    49    26    45    1
    50    27    28    1
    51    27    46    1
    52    28    29    1
    53    28    47    1
    54    29    48    1
    55    29    49    1
    56    30    53    1
    57    30    54    1
    58    30    55    1
