@<TRIPOS>MOLECULE
IMPHY003990
 64 68 0 0 0
SMALL
GASTEIGER

@<TRIPOS>ATOM
      1 O           4.8884   -0.7570    0.0000 O.3     1  UNL1       -0.3320
      2 O           5.3025   -0.3976    0.0000 O.3     1  UNL1       -0.3818
      3 O           4.3766    2.4560    0.0000 O.3     1  UNL1       -0.3849
      4 O           2.5664    1.1412    0.0000 O.3     1  UNL1       -0.3848
      5 O           6.1562   -1.3942    0.0000 O.3     1  UNL1       -0.3638
      6 O           7.2450    1.1927    0.0000 O.3     1  UNL1       -0.3874
      7 O           4.9073   -1.6502    0.0000 O.3     1  UNL1       -0.4581
      8 O           3.9055   -3.0631    0.0000 O.2     1  UNL1       -0.2512
      9 C           4.9934    0.5534    0.0000 C.3     1  UNL1        0.1431
     10 C           4.1844   -0.0343    0.0000 C.3     1  UNL1        0.1704
     11 C           5.9875    0.5560    0.0000 C.3     1  UNL1        0.0849
     12 C           4.6844    1.5045    0.0000 C.3     1  UNL1        0.1091
     13 C           3.6844    1.5045    0.0000 C.3     1  UNL1        0.0361
     14 C           3.3754    0.5534    0.0000 C.3     1  UNL1        0.1095
     15 C           5.8473   -0.4431    0.0000 C.3     1  UNL1        0.1799
     16 C           6.2939    1.5017    0.0000 C.3     1  UNL1        0.0842
     17 C           5.3281    1.1551    0.0000 C.3     1  UNL1        0.0128
     18 C           5.4902    2.0867    0.0000 C.3     1  UNL1        0.0094
     19 C           4.0915   -1.0718    0.0000 C.3     1  UNL1        0.1400
     20 C           2.4174    0.1445    0.0000 C.3     1  UNL1       -0.0201
     21 C           6.9875    0.5586    0.0000 C.3     1  UNL1       -0.0491
     22 C           3.0966    2.3135    0.0000 C.3     1  UNL1       -0.0539
     23 C           6.8817    2.3107    0.0000 C.3     1  UNL1       -0.0169
     24 C           3.1432   -1.5028    0.0000 C.3     1  UNL1       -0.0036
     25 C           2.3006   -0.8906    0.0000 C.3     1  UNL1       -0.0443
     26 C           7.8762    2.2062    0.0000 C.3     1  UNL1       -0.0600
     27 C           6.4749    3.2243    0.0000 C.3     1  UNL1       -0.0600
     28 C           3.0426   -2.4977    0.0000 C.3     1  UNL1       -0.0590
     29 C           4.8143   -2.6459    0.0000 C.2     1  UNL1        0.3043
     30 C           5.6300   -3.2243    0.0000 C.3     1  UNL1        0.0332
     31 H           5.9420    1.2413    0.0000 H       1  UNL1        0.0324
     32 H           5.3497    1.7747    0.0000 H       1  UNL1        0.0324
     33 H           5.9057    2.5469    0.0000 H       1  UNL1        0.0322
     34 H           5.0762    2.5483    0.0000 H       1  UNL1        0.0322
     35 H           4.0327   -1.6890    0.0000 H       1  UNL1        0.0768
     36 H           2.2752    0.7480    0.0000 H       1  UNL1        0.0294
     37 H           1.7985    0.1076    0.0000 H       1  UNL1        0.0294
     38 H           6.9891   -0.0614    0.0000 H       1  UNL1        0.0239
     39 H           7.6075    0.5602    0.0000 H       1  UNL1        0.0239
     40 H           6.9859    1.1786    0.0000 H       1  UNL1        0.0239
     41 H           3.5982    2.6779    0.0000 H       1  UNL1        0.0237
     42 H           2.7322    2.8151    0.0000 H       1  UNL1        0.0237
     43 H           2.5951    1.9491    0.0000 H       1  UNL1        0.0237
     44 H           6.2651    2.3755    0.0000 H       1  UNL1        0.0323
     45 H           2.5773   -1.7561    0.0000 H       1  UNL1        0.0335
     46 H           5.4941   -0.9873    0.0000 H       1  UNL1        0.2104
     47 H           1.7055   -0.7166    0.0000 H       1  UNL1        0.0270
     48 H           2.0273   -1.4471    0.0000 H       1  UNL1        0.0270
     49 H           4.7921    2.9162    0.0000 H       1  UNL1        0.2103
     50 H           2.0000    0.8890    0.0000 H       1  UNL1        0.2103
     51 H           6.7627   -1.5231    0.0000 H       1  UNL1        0.2128
     52 H           7.7057    1.6076    0.0000 H       1  UNL1        0.2102
     53 H           7.8114    1.5896    0.0000 H       1  UNL1        0.0233
     54 H           7.0413    3.4764    0.0000 H       1  UNL1        0.0233
     55 H           6.2228    3.7907    0.0000 H       1  UNL1        0.0233
     56 H           5.9086    2.9721    0.0000 H       1  UNL1        0.0233
     57 H           8.4928    2.1414    0.0000 H       1  UNL1        0.0233
     58 H           7.9410    2.8228    0.0000 H       1  UNL1        0.0233
     59 H           2.4257   -2.4353    0.0000 H       1  UNL1        0.0234
     60 H           2.9801   -3.1146    0.0000 H       1  UNL1        0.0234
     61 H           3.6594   -2.5602    0.0000 H       1  UNL1        0.0234
     62 H           5.2714   -3.7300    0.0000 H       1  UNL1        0.0342
     63 H           6.1358   -3.5829    0.0000 H       1  UNL1        0.0342
     64 H           5.9886   -2.7185    0.0000 H       1  UNL1        0.0342
@<TRIPOS>BOND
     1    10     1    1
     2     1    15    1
     3     9     2    1
     4     2    46    1
     5    12     3    1
     6     3    49    1
     7    14     4    1
     8     4    50    1
     9    15     5    1
    10     5    51    1
    11    16     6    1
    12     6    52    1
    13    19     7    1
    14     7    29    1
    15     8    29    2
    16     9    10    1
    17     9    11    1
    18     9    12    1
    19    10    14    1
    20    10    19    1
    21    11    15    1
    22    11    16    1
    23    11    21    1
    24    12    13    1
    25    12    18    1
    26    13    14    1
    27    13    17    1
    28    13    22    1
    29    14    20    1
    30    15    17    1
    31    16    18    1
    32    16    23    1
    33    17    31    1
    34    17    32    1
    35    18    33    1
    36    18    34    1
    37    19    24    1
    38    19    35    1
    39    20    25    1
    40    20    36    1
    41    20    37    1
    42    21    38    1
    43    21    39    1
    44    21    40    1
    45    22    41    1
    46    22    42    1
    47    22    43    1
    48    23    26    1
    49    23    27    1
    50    23    44    1
    51    24    25    1
    52    24    28    1
    53    24    45    1
    54    25    47    1
    55    25    48    1
    56    26    53    1
    57    26    57    1
    58    26    58    1
    59    27    54    1
    60    27    55    1
    61    27    56    1
    62    28    59    1
    63    28    60    1
    64    28    61    1
    65    29    30    1
    66    30    62    1
    67    30    63    1
    68    30    64    1
