@<TRIPOS>MOLECULE
IMPHY002429
 80 84 0 0 0
SMALL
GASTEIGER

@<TRIPOS>ATOM
      1 O           2.3079   -3.0789    0.0000 O.3     1  UNL1       -0.4802
      2 O           3.8112   -3.9391    0.0000 O.2     1  UNL1       -0.2504
      3 C           5.6580   -0.1089    0.0000 C.3     1  UNL1       -0.0262
      4 C           6.5241   -0.6089    0.0000 C.3     1  UNL1       -0.0072
      5 C           4.7480   -0.6158    0.0000 C.3     1  UNL1       -0.0246
      6 C           7.3901    0.8911    0.0000 C.3     1  UNL1       -0.0072
      7 C           4.7400   -1.6574    0.0000 C.3     1  UNL1       -0.0198
      8 C           8.2840    1.4258    0.0000 C.3     1  UNL1       -0.0258
      9 C           7.3901   -0.1089    0.0000 C.2     1  UNL1       -0.0611
     10 C           5.6580    0.8911    0.0000 C.3     1  UNL1       -0.0481
     11 C           9.1901    0.9119    0.0000 C.3     1  UNL1       -0.0250
     12 C           6.5401   -1.6504    0.0000 C.3     1  UNL1       -0.0433
     13 C           6.5241    1.3911    0.0000 C.3     1  UNL1       -0.0433
     14 C           5.6421   -2.1782    0.0000 C.3     1  UNL1       -0.0479
     15 C           3.8046   -2.2071    0.0000 C.3     1  UNL1        0.0681
     16 C           3.8212   -0.0517    0.0000 C.3     1  UNL1       -0.0470
     17 C           8.2589    2.5104    0.0000 C.3     1  UNL1       -0.0437
     18 C           9.1901   -0.1297    0.0000 C.3     1  UNL1       -0.0288
     19 C           7.3901   -1.1089    0.0000 C.3     1  UNL1       -0.0556
     20 C           8.2840   -0.6436    0.0000 C.2     1  UNL1       -0.0832
     21 C           4.7557    0.3842    0.0000 C.3     1  UNL1       -0.0590
     22 C          10.1339    1.4471    0.0000 C.3     1  UNL1       -0.0466
     23 C           9.1901    3.0674    0.0000 C.3     1  UNL1       -0.0346
     24 C           2.8650   -1.6646    0.0000 C.3     1  UNL1       -0.0372
     25 C           7.3901    1.8911    0.0000 C.3     1  UNL1       -0.0556
     26 C           2.8733   -0.5796    0.0000 C.3     1  UNL1       -0.0515
     27 C          10.1339    2.5321    0.0000 C.3     1  UNL1       -0.0473
     28 C          10.0599    0.4186    0.0000 C.3     1  UNL1       -0.0590
     29 C           4.3079   -3.0712    0.0000 C.3     1  UNL1       -0.0491
     30 C           3.3079   -3.0750    0.0000 C.2     1  UNL1        0.3110
     31 C           9.6800    3.9391    0.0000 C.3     1  UNL1       -0.0598
     32 C           8.6801    3.9276    0.0000 C.3     1  UNL1       -0.0598
     33 H           6.3942    0.3161    0.0000 H       1  UNL1        0.0314
     34 H           4.7433   -2.5074    0.0000 H       1  UNL1        0.0317
     35 H           9.0135    1.8620    0.0000 H       1  UNL1        0.0315
     36 H           5.4460    1.4737    0.0000 H       1  UNL1        0.0269
     37 H           5.0475    0.7834    0.0000 H       1  UNL1        0.0269
     38 H           6.7582   -2.2308    0.0000 H       1  UNL1        0.0274
     39 H           7.1493   -1.5349    0.0000 H       1  UNL1        0.0274
     40 H           6.9226    1.8660    0.0000 H       1  UNL1        0.0274
     41 H           6.1255    1.8660    0.0000 H       1  UNL1        0.0274
     42 H           5.2448   -2.6541    0.0000 H       1  UNL1        0.0269
     43 H           6.0430   -2.6511    0.0000 H       1  UNL1        0.0269
     44 H           4.2294    0.4150    0.0000 H       1  UNL1        0.0271
     45 H           3.4313    0.4304    0.0000 H       1  UNL1        0.0271
     46 H           8.0364    3.0892    0.0000 H       1  UNL1        0.0274
     47 H           7.6507    2.3903    0.0000 H       1  UNL1        0.0274
     48 H           9.3992   -0.7134    0.0000 H       1  UNL1        0.0313
     49 H           9.8010   -0.0236    0.0000 H       1  UNL1        0.0313
     50 H           7.0801   -1.6458    0.0000 H       1  UNL1        0.0238
     51 H           7.9270   -1.4189    0.0000 H       1  UNL1        0.0238
     52 H           7.7001   -0.5720    0.0000 H       1  UNL1        0.0238
     53 H           8.2769   -1.2635    0.0000 H       1  UNL1        0.0572
     54 H           5.3757    0.3794    0.0000 H       1  UNL1        0.0235
     55 H           4.7605    1.0042    0.0000 H       1  UNL1        0.0235
     56 H           4.1358    0.3890    0.0000 H       1  UNL1        0.0235
     57 H          10.3429    0.8634    0.0000 H       1  UNL1        0.0271
     58 H          10.7447    1.5532    0.0000 H       1  UNL1        0.0271
     59 H           2.2549   -1.5538    0.0000 H       1  UNL1        0.0276
     60 H           2.6514   -2.2466    0.0000 H       1  UNL1        0.0276
     61 H           8.0101    1.8911    0.0000 H       1  UNL1        0.0238
     62 H           7.3901    2.5111    0.0000 H       1  UNL1        0.0238
     63 H           6.7701    1.8911    0.0000 H       1  UNL1        0.0238
     64 H           2.6688    0.0057    0.0000 H       1  UNL1        0.0266
     65 H           2.2616   -0.6810    0.0000 H       1  UNL1        0.0266
     66 H          10.7447    2.4260    0.0000 H       1  UNL1        0.0271
     67 H          10.3429    3.1158    0.0000 H       1  UNL1        0.0271
     68 H           9.7541   -0.1207    0.0000 H       1  UNL1        0.0235
     69 H          10.5993    0.1127    0.0000 H       1  UNL1        0.0235
     70 H          10.3658    0.9579    0.0000 H       1  UNL1        0.0235
     71 H           3.7722   -3.3832    0.0000 H       1  UNL1        0.0240
     72 H           4.6200   -3.6069    0.0000 H       1  UNL1        0.0240
     73 H           4.8436   -2.7591    0.0000 H       1  UNL1        0.0240
     74 H           9.2134    4.2438    0.0000 H       1  UNL1        0.0235
     75 H           8.3639    4.4609    0.0000 H       1  UNL1        0.0235
     76 H          10.2205    3.6354    0.0000 H       1  UNL1        0.0235
     77 H           9.9838    4.4796    0.0000 H       1  UNL1        0.0235
     78 H           8.1468    3.6114    0.0000 H       1  UNL1        0.0235
     79 H           9.1396    4.2429    0.0000 H       1  UNL1        0.0235
     80 H           2.0000   -3.6170    0.0000 H       1  UNL1        0.2951
@<TRIPOS>BOND
     1     1    30    1
     2     1    80    1
     3     2    30    2
     4     3     4    1
     5     3     5    1
     6     3    10    1
     7     3    33    1
     8     4     9    1
     9     4    12    1
    10     4    19    1
    11     5     7    1
    12     5    16    1
    13     5    21    1
    14     6     8    1
    15     6     9    1
    16     6    13    1
    17     6    25    1
    18     7    14    1
    19     7    15    1
    20     7    34    1
    21     8    11    1
    22     8    17    1
    23     8    35    1
    24     9    20    2
    25    10    13    1
    26    10    36    1
    27    10    37    1
    28    11    18    1
    29    11    22    1
    30    11    28    1
    31    12    14    1
    32    12    38    1
    33    12    39    1
    34    13    40    1
    35    13    41    1
    36    14    42    1
    37    14    43    1
    38    15    24    1
    39    15    29    1
    40    15    30    1
    41    16    26    1
    42    16    44    1
    43    16    45    1
    44    17    23    1
    45    17    46    1
    46    17    47    1
    47    18    20    1
    48    18    48    1
    49    18    49    1
    50    19    50    1
    51    19    51    1
    52    19    52    1
    53    20    53    1
    54    21    54    1
    55    21    55    1
    56    21    56    1
    57    22    27    1
    58    22    57    1
    59    22    58    1
    60    23    27    1
    61    23    31    1
    62    23    32    1
    63    24    26    1
    64    24    59    1
    65    24    60    1
    66    25    61    1
    67    25    62    1
    68    25    63    1
    69    26    64    1
    70    26    65    1
    71    27    66    1
    72    27    67    1
    73    28    68    1
    74    28    69    1
    75    28    70    1
    76    29    71    1
    77    29    72    1
    78    29    73    1
    79    31    76    1
    80    31    77    1
    81    31    79    1
    82    32    74    1
    83    32    75    1
    84    32    78    1
