@<TRIPOS>MOLECULE
IMPHY013593
 42 46 0 0 0
SMALL
GASTEIGER

@<TRIPOS>ATOM
      1 O           5.3986    0.5547    0.0000 O.3     1  UNL1       -0.4827
      2 O           2.3624    0.6492    0.0000 O.3     1  UNL1       -0.4907
      3 O           7.4201    3.3313    0.0000 O.3     1  UNL1       -0.4838
      4 O           2.0000   -2.9614    0.0000 O.3     1  UNL1       -0.5066
      5 C           4.0048    1.3595    0.0000 C.3     1  UNL1        0.0630
      6 C           4.4099    0.4517    0.0000 C.3     1  UNL1        0.1385
      7 C           4.7418    2.0266    0.0000 C.ar    1  UNL1        0.0050
      8 C           5.6079    1.5266    0.0000 C.ar    1  UNL1        0.1318
      9 C           2.9767    1.4827    0.0000 C.3     1  UNL1        0.1002
     10 C           6.4739    2.0266    0.0000 C.ar    1  UNL1        0.0400
     11 C           3.8150   -0.3958    0.0000 C.ar    1  UNL1        0.0352
     12 C           7.4201    1.7218    0.0000 C.3     1  UNL1        0.0204
     13 C           6.4739    3.0266    0.0000 C.ar    1  UNL1        0.1282
     14 C           8.0037    2.5266    0.0000 C.3     1  UNL1        0.1249
     15 C           4.7418    3.0266    0.0000 C.ar    1  UNL1       -0.0511
     16 C           2.7843   -0.2964    0.0000 C.ar    1  UNL1        0.1307
     17 C           5.6079    3.5266    0.0000 C.ar    1  UNL1       -0.0191
     18 C           4.2772   -1.3703    0.0000 C.ar    1  UNL1       -0.0481
     19 C           9.0037    2.5266    0.0000 C.2     1  UNL1       -0.0395
     20 C           2.1444   -1.1646    0.0000 C.ar    1  UNL1        0.0219
     21 C           3.6576   -2.2531    0.0000 C.ar    1  UNL1       -0.0196
     22 C           2.5840   -2.1496    0.0000 C.ar    1  UNL1        0.1204
     23 C           9.5037    3.3926    0.0000 C.3     1  UNL1       -0.0406
     24 C           9.5037    1.6605    0.0000 C.2     1  UNL1       -0.0962
     25 H           3.7470    2.1694    0.0000 H       1  UNL1        0.0423
     26 H           4.8406   -0.2811    0.0000 H       1  UNL1        0.0793
     27 H           3.1547    2.0766    0.0000 H       1  UNL1        0.0704
     28 H           2.4220    1.7597    0.0000 H       1  UNL1        0.0704
     29 H           7.1691    1.1549    0.0000 H       1  UNL1        0.0355
     30 H           7.9575    1.4126    0.0000 H       1  UNL1        0.0355
     31 H           8.2854    3.0789    0.0000 H       1  UNL1        0.0784
     32 H           4.2049    3.3366    0.0000 H       1  UNL1        0.0623
     33 H           5.6079    4.1466    0.0000 H       1  UNL1        0.0654
     34 H           4.8950   -1.4227    0.0000 H       1  UNL1        0.0624
     35 H           1.5280   -1.0980    0.0000 H       1  UNL1        0.0691
     36 H           3.9168   -2.8163    0.0000 H       1  UNL1        0.0654
     37 H          10.0406    3.0826    0.0000 H       1  UNL1        0.0275
     38 H           9.8137    3.9295    0.0000 H       1  UNL1        0.0275
     39 H           8.9668    3.7026    0.0000 H       1  UNL1        0.0275
     40 H           9.1937    1.1236    0.0000 H       1  UNL1        0.0535
     41 H          10.1237    1.6605    0.0000 H       1  UNL1        0.0535
     42 H           2.2548   -3.5266    0.0000 H       1  UNL1        0.2921
@<TRIPOS>BOND
     1     1     6    1
     2     1     8    1
     3     2     9    1
     4     2    16    1
     5     3    13    1
     6     3    14    1
     7     4    22    1
     8     4    42    1
     9     5     6    1
    10     5     7    1
    11     5     9    1
    12     5    25    1
    13     6    11    1
    14     6    26    1
    15     7     8   ar
    16     7    15   ar
    17     8    10   ar
    18     9    27    1
    19     9    28    1
    20    10    12    1
    21    10    13   ar
    22    11    16   ar
    23    11    18   ar
    24    12    14    1
    25    12    29    1
    26    12    30    1
    27    13    17   ar
    28    14    19    1
    29    14    31    1
    30    15    17   ar
    31    15    32    1
    32    16    20   ar
    33    17    33    1
    34    18    21   ar
    35    18    34    1
    36    19    23    1
    37    19    24    2
    38    20    22   ar
    39    20    35    1
    40    21    22   ar
    41    21    36    1
    42    23    37    1
    43    23    38    1
    44    23    39    1
    45    24    40    1
    46    24    41    1
